
---------- Begin Simulation Statistics ----------
final_tick                                84094867500                       # Number of ticks from beginning of simulation (restored from checkpoints and never reset)
host_inst_rate                                 412218                       # Simulator instruction rate (inst/s)
host_mem_usage                                 692244                       # Number of bytes of host memory used
host_op_rate                                   417640                       # Simulator op (including micro ops) rate (op/s)
host_seconds                                   242.59                       # Real time elapsed on the host
host_tick_rate                              346654315                       # Simulator tick rate (ticks/s)
sim_freq                                 1000000000000                       # Frequency of simulated ticks
sim_insts                                   100000001                       # Number of instructions simulated
sim_ops                                     101315259                       # Number of ops (including micro ops) simulated
sim_seconds                                  0.084095                       # Number of seconds simulated
sim_ticks                                 84094867500                       # Number of ticks simulated
system.cpu.branchPred.BTBCorrect                    0                       # Number of correct BTB predictions (this stat may not work properly.
system.cpu.branchPred.BTBHitPct             99.662258                       # BTB Hit Percentage
system.cpu.branchPred.BTBHits                 2779105                       # Number of BTB hits
system.cpu.branchPred.BTBLookups              2788523                       # Number of BTB lookups
system.cpu.branchPred.RASInCorrect                 12                       # Number of incorrect RAS predictions.
system.cpu.branchPred.condIncorrect            159274                       # Number of conditional branches incorrect
system.cpu.branchPred.condPredicted           4416161                       # Number of conditional branches predicted
system.cpu.branchPred.indirectHits                390                       # Number of indirect target hits.
system.cpu.branchPred.indirectLookups             596                       # Number of indirect predictor lookups.
system.cpu.branchPred.indirectMisses              206                       # Number of indirect misses.
system.cpu.branchPred.lookups                 5454144                       # Number of BP lookups
system.cpu.branchPred.usedRAS                  120420                       # Number of times the RAS was used to get a target.
system.cpu.branchPredindirectMispredicted          192                       # Number of mispredicted indirect branches.
system.cpu.committedInsts                   100000001                       # Number of instructions committed
system.cpu.committedOps                     101315259                       # Number of ops (including micro ops) committed
system.cpu.cpi                               1.681897                       # CPI: cycles per instruction
system.cpu.discardedOps                        414451                       # Number of ops (including micro ops) which were discarded before commit
system.cpu.dtb.accesses                             0                       # DTB accesses
system.cpu.dtb.align_faults                         0                       # Number of TLB faults due to alignment restrictions
system.cpu.dtb.domain_faults                        0                       # Number of TLB faults due to domain restrictions
system.cpu.dtb.flush_entries                        0                       # Number of entries that have been flushed from TLB
system.cpu.dtb.flush_tlb                            0                       # Number of times complete TLB was flushed
system.cpu.dtb.flush_tlb_asid                       0                       # Number of times TLB was flushed by ASID
system.cpu.dtb.flush_tlb_mva                        0                       # Number of times TLB was flushed by MVA
system.cpu.dtb.flush_tlb_mva_asid                   0                       # Number of times TLB was flushed by MVA & ASID
system.cpu.dtb.hits                                 0                       # DTB hits
system.cpu.dtb.inst_accesses                        0                       # ITB inst accesses
system.cpu.dtb.inst_hits                            0                       # ITB inst hits
system.cpu.dtb.inst_misses                          0                       # ITB inst misses
system.cpu.dtb.misses                               0                       # DTB misses
system.cpu.dtb.perms_faults                         0                       # Number of TLB faults due to permissions restrictions
system.cpu.dtb.prefetch_faults                      0                       # Number of TLB faults due to prefetch
system.cpu.dtb.read_accesses                        0                       # DTB read accesses
system.cpu.dtb.read_hits                            0                       # DTB read hits
system.cpu.dtb.read_misses                          0                       # DTB read misses
system.cpu.dtb.stage2_mmu.stage2_tlb.accesses            0                       # DTB accesses
system.cpu.dtb.stage2_mmu.stage2_tlb.align_faults            0                       # Number of TLB faults due to alignment restrictions
system.cpu.dtb.stage2_mmu.stage2_tlb.domain_faults            0                       # Number of TLB faults due to domain restrictions
system.cpu.dtb.stage2_mmu.stage2_tlb.flush_entries            0                       # Number of entries that have been flushed from TLB
system.cpu.dtb.stage2_mmu.stage2_tlb.flush_tlb            0                       # Number of times complete TLB was flushed
system.cpu.dtb.stage2_mmu.stage2_tlb.flush_tlb_asid            0                       # Number of times TLB was flushed by ASID
system.cpu.dtb.stage2_mmu.stage2_tlb.flush_tlb_mva            0                       # Number of times TLB was flushed by MVA
system.cpu.dtb.stage2_mmu.stage2_tlb.flush_tlb_mva_asid            0                       # Number of times TLB was flushed by MVA & ASID
system.cpu.dtb.stage2_mmu.stage2_tlb.hits            0                       # DTB hits
system.cpu.dtb.stage2_mmu.stage2_tlb.inst_accesses            0                       # ITB inst accesses
system.cpu.dtb.stage2_mmu.stage2_tlb.inst_hits            0                       # ITB inst hits
system.cpu.dtb.stage2_mmu.stage2_tlb.inst_misses            0                       # ITB inst misses
system.cpu.dtb.stage2_mmu.stage2_tlb.misses            0                       # DTB misses
system.cpu.dtb.stage2_mmu.stage2_tlb.perms_faults            0                       # Number of TLB faults due to permissions restrictions
system.cpu.dtb.stage2_mmu.stage2_tlb.prefetch_faults            0                       # Number of TLB faults due to prefetch
system.cpu.dtb.stage2_mmu.stage2_tlb.read_accesses            0                       # DTB read accesses
system.cpu.dtb.stage2_mmu.stage2_tlb.read_hits            0                       # DTB read hits
system.cpu.dtb.stage2_mmu.stage2_tlb.read_misses            0                       # DTB read misses
system.cpu.dtb.stage2_mmu.stage2_tlb.walker.walkRequestOrigin_Requested::Data            0                       # Table walker requests started/completed, data/inst
system.cpu.dtb.stage2_mmu.stage2_tlb.walker.walkRequestOrigin_Requested::Inst            0                       # Table walker requests started/completed, data/inst
system.cpu.dtb.stage2_mmu.stage2_tlb.walker.walkRequestOrigin_Requested::total            0                       # Table walker requests started/completed, data/inst
system.cpu.dtb.stage2_mmu.stage2_tlb.walker.walkRequestOrigin_Completed::Data            0                       # Table walker requests started/completed, data/inst
system.cpu.dtb.stage2_mmu.stage2_tlb.walker.walkRequestOrigin_Completed::Inst            0                       # Table walker requests started/completed, data/inst
system.cpu.dtb.stage2_mmu.stage2_tlb.walker.walkRequestOrigin_Completed::total            0                       # Table walker requests started/completed, data/inst
system.cpu.dtb.stage2_mmu.stage2_tlb.walker.walkRequestOrigin::total            0                       # Table walker requests started/completed, data/inst
system.cpu.dtb.stage2_mmu.stage2_tlb.walker.walks            0                       # Table walker walks requested
system.cpu.dtb.stage2_mmu.stage2_tlb.write_accesses            0                       # DTB write accesses
system.cpu.dtb.stage2_mmu.stage2_tlb.write_hits            0                       # DTB write hits
system.cpu.dtb.stage2_mmu.stage2_tlb.write_misses            0                       # DTB write misses
system.cpu.dtb.walker.walkRequestOrigin_Requested::Data            0                       # Table walker requests started/completed, data/inst
system.cpu.dtb.walker.walkRequestOrigin_Requested::Inst            0                       # Table walker requests started/completed, data/inst
system.cpu.dtb.walker.walkRequestOrigin_Requested::total            0                       # Table walker requests started/completed, data/inst
system.cpu.dtb.walker.walkRequestOrigin_Completed::Data            0                       # Table walker requests started/completed, data/inst
system.cpu.dtb.walker.walkRequestOrigin_Completed::Inst            0                       # Table walker requests started/completed, data/inst
system.cpu.dtb.walker.walkRequestOrigin_Completed::total            0                       # Table walker requests started/completed, data/inst
system.cpu.dtb.walker.walkRequestOrigin::total            0                       # Table walker requests started/completed, data/inst
system.cpu.dtb.walker.walks                         0                       # Table walker walks requested
system.cpu.dtb.write_accesses                       0                       # DTB write accesses
system.cpu.dtb.write_hits                           0                       # DTB write hits
system.cpu.dtb.write_misses                         0                       # DTB write misses
system.cpu.fetch2.amo_instructions                  0                       # Number of memory atomic instructions successfully decoded
system.cpu.fetch2.fp_instructions                   0                       # Number of floating point instructions successfully decoded
system.cpu.fetch2.int_instructions           36892740                       # Number of integer instructions successfully decoded
system.cpu.fetch2.load_instructions          48176678                       # Number of memory load instructions successfully decoded
system.cpu.fetch2.store_instructions         12286539                       # Number of memory store instructions successfully decoded
system.cpu.fetch2.vec_instructions                  0                       # Number of SIMD instructions successfully decoded
system.cpu.idleCycles                        36673462                       # Total number of cycles that the object has spent stopped
system.cpu.ipc                               0.594567                       # IPC: instructions per cycle
system.cpu.itb.accesses                             0                       # DTB accesses
system.cpu.itb.align_faults                         0                       # Number of TLB faults due to alignment restrictions
system.cpu.itb.domain_faults                        0                       # Number of TLB faults due to domain restrictions
system.cpu.itb.flush_entries                        0                       # Number of entries that have been flushed from TLB
system.cpu.itb.flush_tlb                            0                       # Number of times complete TLB was flushed
system.cpu.itb.flush_tlb_asid                       0                       # Number of times TLB was flushed by ASID
system.cpu.itb.flush_tlb_mva                        0                       # Number of times TLB was flushed by MVA
system.cpu.itb.flush_tlb_mva_asid                   0                       # Number of times TLB was flushed by MVA & ASID
system.cpu.itb.hits                                 0                       # DTB hits
system.cpu.itb.inst_accesses                        0                       # ITB inst accesses
system.cpu.itb.inst_hits                            0                       # ITB inst hits
system.cpu.itb.inst_misses                          0                       # ITB inst misses
system.cpu.itb.misses                               0                       # DTB misses
system.cpu.itb.perms_faults                         0                       # Number of TLB faults due to permissions restrictions
system.cpu.itb.prefetch_faults                      0                       # Number of TLB faults due to prefetch
system.cpu.itb.read_accesses                        0                       # DTB read accesses
system.cpu.itb.read_hits                            0                       # DTB read hits
system.cpu.itb.read_misses                          0                       # DTB read misses
system.cpu.itb.stage2_mmu.stage2_tlb.accesses            0                       # DTB accesses
system.cpu.itb.stage2_mmu.stage2_tlb.align_faults            0                       # Number of TLB faults due to alignment restrictions
system.cpu.itb.stage2_mmu.stage2_tlb.domain_faults            0                       # Number of TLB faults due to domain restrictions
system.cpu.itb.stage2_mmu.stage2_tlb.flush_entries            0                       # Number of entries that have been flushed from TLB
system.cpu.itb.stage2_mmu.stage2_tlb.flush_tlb            0                       # Number of times complete TLB was flushed
system.cpu.itb.stage2_mmu.stage2_tlb.flush_tlb_asid            0                       # Number of times TLB was flushed by ASID
system.cpu.itb.stage2_mmu.stage2_tlb.flush_tlb_mva            0                       # Number of times TLB was flushed by MVA
system.cpu.itb.stage2_mmu.stage2_tlb.flush_tlb_mva_asid            0                       # Number of times TLB was flushed by MVA & ASID
system.cpu.itb.stage2_mmu.stage2_tlb.hits            0                       # DTB hits
system.cpu.itb.stage2_mmu.stage2_tlb.inst_accesses            0                       # ITB inst accesses
system.cpu.itb.stage2_mmu.stage2_tlb.inst_hits            0                       # ITB inst hits
system.cpu.itb.stage2_mmu.stage2_tlb.inst_misses            0                       # ITB inst misses
system.cpu.itb.stage2_mmu.stage2_tlb.misses            0                       # DTB misses
system.cpu.itb.stage2_mmu.stage2_tlb.perms_faults            0                       # Number of TLB faults due to permissions restrictions
system.cpu.itb.stage2_mmu.stage2_tlb.prefetch_faults            0                       # Number of TLB faults due to prefetch
system.cpu.itb.stage2_mmu.stage2_tlb.read_accesses            0                       # DTB read accesses
system.cpu.itb.stage2_mmu.stage2_tlb.read_hits            0                       # DTB read hits
system.cpu.itb.stage2_mmu.stage2_tlb.read_misses            0                       # DTB read misses
system.cpu.itb.stage2_mmu.stage2_tlb.walker.walkRequestOrigin_Requested::Data            0                       # Table walker requests started/completed, data/inst
system.cpu.itb.stage2_mmu.stage2_tlb.walker.walkRequestOrigin_Requested::Inst            0                       # Table walker requests started/completed, data/inst
system.cpu.itb.stage2_mmu.stage2_tlb.walker.walkRequestOrigin_Requested::total            0                       # Table walker requests started/completed, data/inst
system.cpu.itb.stage2_mmu.stage2_tlb.walker.walkRequestOrigin_Completed::Data            0                       # Table walker requests started/completed, data/inst
system.cpu.itb.stage2_mmu.stage2_tlb.walker.walkRequestOrigin_Completed::Inst            0                       # Table walker requests started/completed, data/inst
system.cpu.itb.stage2_mmu.stage2_tlb.walker.walkRequestOrigin_Completed::total            0                       # Table walker requests started/completed, data/inst
system.cpu.itb.stage2_mmu.stage2_tlb.walker.walkRequestOrigin::total            0                       # Table walker requests started/completed, data/inst
system.cpu.itb.stage2_mmu.stage2_tlb.walker.walks            0                       # Table walker walks requested
system.cpu.itb.stage2_mmu.stage2_tlb.write_accesses            0                       # DTB write accesses
system.cpu.itb.stage2_mmu.stage2_tlb.write_hits            0                       # DTB write hits
system.cpu.itb.stage2_mmu.stage2_tlb.write_misses            0                       # DTB write misses
system.cpu.itb.walker.walkRequestOrigin_Requested::Data            0                       # Table walker requests started/completed, data/inst
system.cpu.itb.walker.walkRequestOrigin_Requested::Inst            0                       # Table walker requests started/completed, data/inst
system.cpu.itb.walker.walkRequestOrigin_Requested::total            0                       # Table walker requests started/completed, data/inst
system.cpu.itb.walker.walkRequestOrigin_Completed::Data            0                       # Table walker requests started/completed, data/inst
system.cpu.itb.walker.walkRequestOrigin_Completed::Inst            0                       # Table walker requests started/completed, data/inst
system.cpu.itb.walker.walkRequestOrigin_Completed::total            0                       # Table walker requests started/completed, data/inst
system.cpu.itb.walker.walkRequestOrigin::total            0                       # Table walker requests started/completed, data/inst
system.cpu.itb.walker.walks                         0                       # Table walker walks requested
system.cpu.itb.write_accesses                       0                       # DTB write accesses
system.cpu.itb.write_hits                           0                       # DTB write hits
system.cpu.itb.write_misses                         0                       # DTB write misses
system.cpu.numCycles                        168189735                       # number of cpu cycles simulated
system.cpu.numFetchSuspends                         0                       # Number of times Execute suspended instruction fetching
system.cpu.numWorkItemsCompleted                    0                       # number of work items this cpu completed
system.cpu.numWorkItemsStarted                      0                       # number of work items this cpu started
system.cpu.op_class_0::No_OpClass                   0      0.00%      0.00% # Class of committed instruction
system.cpu.op_class_0::IntAlu                41315674     40.78%     40.78% # Class of committed instruction
system.cpu.op_class_0::IntMult                    240      0.00%     40.78% # Class of committed instruction
system.cpu.op_class_0::IntDiv                       0      0.00%     40.78% # Class of committed instruction
system.cpu.op_class_0::FloatAdd                     0      0.00%     40.78% # Class of committed instruction
system.cpu.op_class_0::FloatCmp                     0      0.00%     40.78% # Class of committed instruction
system.cpu.op_class_0::FloatCvt                     0      0.00%     40.78% # Class of committed instruction
system.cpu.op_class_0::FloatMult                    0      0.00%     40.78% # Class of committed instruction
system.cpu.op_class_0::FloatMultAcc                 0      0.00%     40.78% # Class of committed instruction
system.cpu.op_class_0::FloatDiv                     0      0.00%     40.78% # Class of committed instruction
system.cpu.op_class_0::FloatMisc                    0      0.00%     40.78% # Class of committed instruction
system.cpu.op_class_0::FloatSqrt                    0      0.00%     40.78% # Class of committed instruction
system.cpu.op_class_0::SimdAdd                      0      0.00%     40.78% # Class of committed instruction
system.cpu.op_class_0::SimdAddAcc                   0      0.00%     40.78% # Class of committed instruction
system.cpu.op_class_0::SimdAlu                      0      0.00%     40.78% # Class of committed instruction
system.cpu.op_class_0::SimdCmp                      0      0.00%     40.78% # Class of committed instruction
system.cpu.op_class_0::SimdCvt                      0      0.00%     40.78% # Class of committed instruction
system.cpu.op_class_0::SimdMisc                     0      0.00%     40.78% # Class of committed instruction
system.cpu.op_class_0::SimdMult                     0      0.00%     40.78% # Class of committed instruction
system.cpu.op_class_0::SimdMultAcc                  0      0.00%     40.78% # Class of committed instruction
system.cpu.op_class_0::SimdShift                    0      0.00%     40.78% # Class of committed instruction
system.cpu.op_class_0::SimdShiftAcc                 0      0.00%     40.78% # Class of committed instruction
system.cpu.op_class_0::SimdDiv                      0      0.00%     40.78% # Class of committed instruction
system.cpu.op_class_0::SimdSqrt                     0      0.00%     40.78% # Class of committed instruction
system.cpu.op_class_0::SimdFloatAdd                 0      0.00%     40.78% # Class of committed instruction
system.cpu.op_class_0::SimdFloatAlu                 0      0.00%     40.78% # Class of committed instruction
system.cpu.op_class_0::SimdFloatCmp                 0      0.00%     40.78% # Class of committed instruction
system.cpu.op_class_0::SimdFloatCvt                 0      0.00%     40.78% # Class of committed instruction
system.cpu.op_class_0::SimdFloatDiv                 0      0.00%     40.78% # Class of committed instruction
system.cpu.op_class_0::SimdFloatMisc               18      0.00%     40.78% # Class of committed instruction
system.cpu.op_class_0::SimdFloatMult                0      0.00%     40.78% # Class of committed instruction
system.cpu.op_class_0::SimdFloatMultAcc             0      0.00%     40.78% # Class of committed instruction
system.cpu.op_class_0::SimdFloatSqrt                0      0.00%     40.78% # Class of committed instruction
system.cpu.op_class_0::SimdReduceAdd                0      0.00%     40.78% # Class of committed instruction
system.cpu.op_class_0::SimdReduceAlu                0      0.00%     40.78% # Class of committed instruction
system.cpu.op_class_0::SimdReduceCmp                0      0.00%     40.78% # Class of committed instruction
system.cpu.op_class_0::SimdFloatReduceAdd            0      0.00%     40.78% # Class of committed instruction
system.cpu.op_class_0::SimdFloatReduceCmp            0      0.00%     40.78% # Class of committed instruction
system.cpu.op_class_0::SimdAes                      0      0.00%     40.78% # Class of committed instruction
system.cpu.op_class_0::SimdAesMix                   0      0.00%     40.78% # Class of committed instruction
system.cpu.op_class_0::SimdSha1Hash                 0      0.00%     40.78% # Class of committed instruction
system.cpu.op_class_0::SimdSha1Hash2                0      0.00%     40.78% # Class of committed instruction
system.cpu.op_class_0::SimdSha256Hash               0      0.00%     40.78% # Class of committed instruction
system.cpu.op_class_0::SimdSha256Hash2              0      0.00%     40.78% # Class of committed instruction
system.cpu.op_class_0::SimdShaSigma2                0      0.00%     40.78% # Class of committed instruction
system.cpu.op_class_0::SimdShaSigma3                0      0.00%     40.78% # Class of committed instruction
system.cpu.op_class_0::SimdPredAlu                  0      0.00%     40.78% # Class of committed instruction
system.cpu.op_class_0::MemRead               47190316     46.58%     87.36% # Class of committed instruction
system.cpu.op_class_0::MemWrite              12809011     12.64%    100.00% # Class of committed instruction
system.cpu.op_class_0::FloatMemRead                 0      0.00%    100.00% # Class of committed instruction
system.cpu.op_class_0::FloatMemWrite                0      0.00%    100.00% # Class of committed instruction
system.cpu.op_class_0::IprAccess                    0      0.00%    100.00% # Class of committed instruction
system.cpu.op_class_0::InstPrefetch                 0      0.00%    100.00% # Class of committed instruction
system.cpu.op_class_0::total                101315259                       # Class of committed instruction
system.cpu.tickCycles                       131516273                       # Number of cycles that the object actually ticked
system.cpu.workload.numSyscalls                    84                       # Number of system calls
system.membus.snoop_filter.hit_multi_requests            0                       # Number of requests hitting in the snoop filter with multiple (>1) holders of the requested data.
system.membus.snoop_filter.hit_multi_snoops            0                       # Number of snoops hitting in the snoop filter with multiple (>1) holders of the requested data.
system.membus.snoop_filter.hit_single_requests       174781                       # Number of requests hitting in the snoop filter with a single holder of the requested data.
system.membus.snoop_filter.hit_single_snoops            0                       # Number of snoops hitting in the snoop filter with a single holder of the requested data.
system.membus.snoop_filter.tot_requests        382747                       # Total number of requests made to the snoop filter.
system.membus.snoop_filter.tot_snoops               0                       # Total number of snoops made to the snoop filter.
system.tol2bus.snoop_filter.hit_multi_requests          289                       # Number of requests hitting in the snoop filter with multiple (>1) holders of the requested data.
system.tol2bus.snoop_filter.hit_multi_snoops            1                       # Number of snoops hitting in the snoop filter with multiple (>1) holders of the requested data.
system.tol2bus.snoop_filter.hit_single_requests       779761                       # Number of requests hitting in the snoop filter with a single holder of the requested data.
system.tol2bus.snoop_filter.hit_single_snoops          739                       # Number of snoops hitting in the snoop filter with a single holder of the requested data.
system.tol2bus.snoop_filter.tot_requests      1561052                       # Total number of requests made to the snoop filter.
system.tol2bus.snoop_filter.tot_snoops            740                       # Total number of snoops made to the snoop filter.
system.membus.pwrStateResidencyTicks::UNDEFINED  84094867500                       # Cumulative time (in ticks) in various power states
system.membus.trans_dist::ReadResp              67384                       # Transaction distribution
system.membus.trans_dist::WritebackDirty       117498                       # Transaction distribution
system.membus.trans_dist::CleanEvict            57272                       # Transaction distribution
system.membus.trans_dist::ReadExReq            140593                       # Transaction distribution
system.membus.trans_dist::ReadExResp           140593                       # Transaction distribution
system.membus.trans_dist::ReadSharedReq         67384                       # Transaction distribution
system.membus.pkt_count_system.l2.mem_side::system.mem_ctrls.port       590724                       # Packet count per connected master and slave (bytes)
system.membus.pkt_count::total                 590724                       # Packet count per connected master and slave (bytes)
system.membus.pkt_size_system.l2.mem_side::system.mem_ctrls.port     20830400                       # Cumulative packet size per connected master and slave (bytes)
system.membus.pkt_size::total                20830400                       # Cumulative packet size per connected master and slave (bytes)
system.membus.snoops                                0                       # Total snoops (count)
system.membus.snoopTraffic                          0                       # Total snoop traffic (bytes)
system.membus.snoop_fanout::samples            207977                       # Request fanout histogram
system.membus.snoop_fanout::mean                    0                       # Request fanout histogram
system.membus.snoop_fanout::stdev                   0                       # Request fanout histogram
system.membus.snoop_fanout::underflows              0      0.00%      0.00% # Request fanout histogram
system.membus.snoop_fanout::0                  207977    100.00%    100.00% # Request fanout histogram
system.membus.snoop_fanout::1                       0      0.00%    100.00% # Request fanout histogram
system.membus.snoop_fanout::overflows               0      0.00%    100.00% # Request fanout histogram
system.membus.snoop_fanout::min_value               0                       # Request fanout histogram
system.membus.snoop_fanout::max_value               0                       # Request fanout histogram
system.membus.snoop_fanout::total              207977                       # Request fanout histogram
system.membus.respLayer1.occupancy         1111341250                       # Layer occupancy (ticks)
system.membus.respLayer1.utilization              1.3                       # Layer utilization (%)
system.membus.reqLayer0.occupancy           885542000                       # Layer occupancy (ticks)
system.membus.reqLayer0.utilization               1.1                       # Layer utilization (%)
system.tol2bus.pwrStateResidencyTicks::UNDEFINED  84094867500                       # Cumulative time (in ticks) in various power states
system.tol2bus.trans_dist::ReadResp            474363                       # Transaction distribution
system.tol2bus.trans_dist::WritebackDirty       801510                       # Transaction distribution
system.tol2bus.trans_dist::WritebackClean          355                       # Transaction distribution
system.tol2bus.trans_dist::CleanEvict          153403                       # Transaction distribution
system.tol2bus.trans_dist::ReadExReq           306931                       # Transaction distribution
system.tol2bus.trans_dist::ReadExResp          306931                       # Transaction distribution
system.tol2bus.trans_dist::ReadCleanReq           867                       # Transaction distribution
system.tol2bus.trans_dist::ReadSharedReq       473496                       # Transaction distribution
system.tol2bus.pkt_count_system.cpu.icache.mem_side::system.l2.cpu_side         2089                       # Packet count per connected master and slave (bytes)
system.tol2bus.pkt_count_system.cpu.dcache.mem_side::system.l2.cpu_side      2340257                       # Packet count per connected master and slave (bytes)
system.tol2bus.pkt_count::total               2342346                       # Packet count per connected master and slave (bytes)
system.tol2bus.pkt_size_system.cpu.icache.mem_side::system.l2.cpu_side        78208                       # Cumulative packet size per connected master and slave (bytes)
system.tol2bus.pkt_size_system.cpu.dcache.mem_side::system.l2.cpu_side     93724096                       # Cumulative packet size per connected master and slave (bytes)
system.tol2bus.pkt_size::total               93802304                       # Cumulative packet size per connected master and slave (bytes)
system.tol2bus.snoops                          175510                       # Total snoops (count)
system.tol2bus.snoopTraffic                   7519872                       # Total snoop traffic (bytes)
system.tol2bus.snoop_fanout::samples           956804                       # Request fanout histogram
system.tol2bus.snoop_fanout::mean            0.001080                       # Request fanout histogram
system.tol2bus.snoop_fanout::stdev           0.032872                       # Request fanout histogram
system.tol2bus.snoop_fanout::underflows             0      0.00%      0.00% # Request fanout histogram
system.tol2bus.snoop_fanout::0                 955772     99.89%     99.89% # Request fanout histogram
system.tol2bus.snoop_fanout::1                   1031      0.11%    100.00% # Request fanout histogram
system.tol2bus.snoop_fanout::2                      1      0.00%    100.00% # Request fanout histogram
system.tol2bus.snoop_fanout::overflows              0      0.00%    100.00% # Request fanout histogram
system.tol2bus.snoop_fanout::min_value              0                       # Request fanout histogram
system.tol2bus.snoop_fanout::max_value              2                       # Request fanout histogram
system.tol2bus.snoop_fanout::total             956804                       # Request fanout histogram
system.tol2bus.reqLayer0.occupancy         1464893000                       # Layer occupancy (ticks)
system.tol2bus.reqLayer0.utilization              1.7                       # Layer utilization (%)
system.tol2bus.respLayer1.occupancy        1170644492                       # Layer occupancy (ticks)
system.tol2bus.respLayer1.utilization             1.4                       # Layer utilization (%)
system.tol2bus.respLayer0.occupancy           1300500                       # Layer occupancy (ticks)
system.tol2bus.respLayer0.utilization             0.0                       # Layer utilization (%)
system.voltage_domain.voltage                       1                       # Voltage in Volts
system.clk_domain.clock                          1000                       # Clock period in ticks
system.l2.pwrStateResidencyTicks::UNDEFINED  84094867500                       # Cumulative time (in ticks) in various power states
system.l2.demand_hits::.cpu.inst                   49                       # number of demand (read+write) hits
system.l2.demand_hits::.cpu.data               573260                       # number of demand (read+write) hits
system.l2.demand_hits::total                   573309                       # number of demand (read+write) hits
system.l2.overall_hits::.cpu.inst                  49                       # number of overall hits
system.l2.overall_hits::.cpu.data              573260                       # number of overall hits
system.l2.overall_hits::total                  573309                       # number of overall hits
system.l2.demand_misses::.cpu.inst                818                       # number of demand (read+write) misses
system.l2.demand_misses::.cpu.data             207167                       # number of demand (read+write) misses
system.l2.demand_misses::total                 207985                       # number of demand (read+write) misses
system.l2.overall_misses::.cpu.inst               818                       # number of overall misses
system.l2.overall_misses::.cpu.data            207167                       # number of overall misses
system.l2.overall_misses::total                207985                       # number of overall misses
system.l2.demand_miss_latency::.cpu.inst     63553500                       # number of demand (read+write) miss cycles
system.l2.demand_miss_latency::.cpu.data  17219870500                       # number of demand (read+write) miss cycles
system.l2.demand_miss_latency::total      17283424000                       # number of demand (read+write) miss cycles
system.l2.overall_miss_latency::.cpu.inst     63553500                       # number of overall miss cycles
system.l2.overall_miss_latency::.cpu.data  17219870500                       # number of overall miss cycles
system.l2.overall_miss_latency::total     17283424000                       # number of overall miss cycles
system.l2.demand_accesses::.cpu.inst              867                       # number of demand (read+write) accesses
system.l2.demand_accesses::.cpu.data           780427                       # number of demand (read+write) accesses
system.l2.demand_accesses::total               781294                       # number of demand (read+write) accesses
system.l2.overall_accesses::.cpu.inst             867                       # number of overall (read+write) accesses
system.l2.overall_accesses::.cpu.data          780427                       # number of overall (read+write) accesses
system.l2.overall_accesses::total              781294                       # number of overall (read+write) accesses
system.l2.demand_miss_rate::.cpu.inst        0.943483                       # miss rate for demand accesses
system.l2.demand_miss_rate::.cpu.data        0.265453                       # miss rate for demand accesses
system.l2.demand_miss_rate::total            0.266206                       # miss rate for demand accesses
system.l2.overall_miss_rate::.cpu.inst       0.943483                       # miss rate for overall accesses
system.l2.overall_miss_rate::.cpu.data       0.265453                       # miss rate for overall accesses
system.l2.overall_miss_rate::total           0.266206                       # miss rate for overall accesses
system.l2.demand_avg_miss_latency::.cpu.inst 77693.765281                       # average overall miss latency
system.l2.demand_avg_miss_latency::.cpu.data 83120.721447                       # average overall miss latency
system.l2.demand_avg_miss_latency::total 83099.377359                       # average overall miss latency
system.l2.overall_avg_miss_latency::.cpu.inst 77693.765281                       # average overall miss latency
system.l2.overall_avg_miss_latency::.cpu.data 83120.721447                       # average overall miss latency
system.l2.overall_avg_miss_latency::total 83099.377359                       # average overall miss latency
system.l2.blocked_cycles::no_mshrs                  0                       # number of cycles access was blocked
system.l2.blocked_cycles::no_targets                0                       # number of cycles access was blocked
system.l2.blocked::no_mshrs                         0                       # number of cycles access was blocked
system.l2.blocked::no_targets                       0                       # number of cycles access was blocked
system.l2.avg_blocked_cycles::no_mshrs            nan                       # average number of cycles each access was blocked
system.l2.avg_blocked_cycles::no_targets          nan                       # average number of cycles each access was blocked
system.l2.writebacks::.writebacks              117498                       # number of writebacks
system.l2.writebacks::total                    117498                       # number of writebacks
system.l2.demand_mshr_hits::.cpu.data               8                       # number of demand (read+write) MSHR hits
system.l2.demand_mshr_hits::total                   8                       # number of demand (read+write) MSHR hits
system.l2.overall_mshr_hits::.cpu.data              8                       # number of overall MSHR hits
system.l2.overall_mshr_hits::total                  8                       # number of overall MSHR hits
system.l2.demand_mshr_misses::.cpu.inst           818                       # number of demand (read+write) MSHR misses
system.l2.demand_mshr_misses::.cpu.data        207159                       # number of demand (read+write) MSHR misses
system.l2.demand_mshr_misses::total            207977                       # number of demand (read+write) MSHR misses
system.l2.overall_mshr_misses::.cpu.inst          818                       # number of overall MSHR misses
system.l2.overall_mshr_misses::.cpu.data       207159                       # number of overall MSHR misses
system.l2.overall_mshr_misses::total           207977                       # number of overall MSHR misses
system.l2.demand_mshr_miss_latency::.cpu.inst     55373500                       # number of demand (read+write) MSHR miss cycles
system.l2.demand_mshr_miss_latency::.cpu.data  15147717000                       # number of demand (read+write) MSHR miss cycles
system.l2.demand_mshr_miss_latency::total  15203090500                       # number of demand (read+write) MSHR miss cycles
system.l2.overall_mshr_miss_latency::.cpu.inst     55373500                       # number of overall MSHR miss cycles
system.l2.overall_mshr_miss_latency::.cpu.data  15147717000                       # number of overall MSHR miss cycles
system.l2.overall_mshr_miss_latency::total  15203090500                       # number of overall MSHR miss cycles
system.l2.demand_mshr_miss_rate::.cpu.inst     0.943483                       # mshr miss rate for demand accesses
system.l2.demand_mshr_miss_rate::.cpu.data     0.265443                       # mshr miss rate for demand accesses
system.l2.demand_mshr_miss_rate::total       0.266196                       # mshr miss rate for demand accesses
system.l2.overall_mshr_miss_rate::.cpu.inst     0.943483                       # mshr miss rate for overall accesses
system.l2.overall_mshr_miss_rate::.cpu.data     0.265443                       # mshr miss rate for overall accesses
system.l2.overall_mshr_miss_rate::total      0.266196                       # mshr miss rate for overall accesses
system.l2.demand_avg_mshr_miss_latency::.cpu.inst 67693.765281                       # average overall mshr miss latency
system.l2.demand_avg_mshr_miss_latency::.cpu.data 73121.211244                       # average overall mshr miss latency
system.l2.demand_avg_mshr_miss_latency::total 73099.864408                       # average overall mshr miss latency
system.l2.overall_avg_mshr_miss_latency::.cpu.inst 67693.765281                       # average overall mshr miss latency
system.l2.overall_avg_mshr_miss_latency::.cpu.data 73121.211244                       # average overall mshr miss latency
system.l2.overall_avg_mshr_miss_latency::total 73099.864408                       # average overall mshr miss latency
system.l2.replacements                         175510                       # number of replacements
system.l2.WritebackDirty_hits::.writebacks       684012                       # number of WritebackDirty hits
system.l2.WritebackDirty_hits::total           684012                       # number of WritebackDirty hits
system.l2.WritebackDirty_accesses::.writebacks       684012                       # number of WritebackDirty accesses(hits+misses)
system.l2.WritebackDirty_accesses::total       684012                       # number of WritebackDirty accesses(hits+misses)
system.l2.WritebackClean_hits::.writebacks          350                       # number of WritebackClean hits
system.l2.WritebackClean_hits::total              350                       # number of WritebackClean hits
system.l2.WritebackClean_accesses::.writebacks          350                       # number of WritebackClean accesses(hits+misses)
system.l2.WritebackClean_accesses::total          350                       # number of WritebackClean accesses(hits+misses)
system.l2.ReadExReq_hits::.cpu.data            166338                       # number of ReadExReq hits
system.l2.ReadExReq_hits::total                166338                       # number of ReadExReq hits
system.l2.ReadExReq_misses::.cpu.data          140593                       # number of ReadExReq misses
system.l2.ReadExReq_misses::total              140593                       # number of ReadExReq misses
system.l2.ReadExReq_miss_latency::.cpu.data  11953670000                       # number of ReadExReq miss cycles
system.l2.ReadExReq_miss_latency::total   11953670000                       # number of ReadExReq miss cycles
system.l2.ReadExReq_accesses::.cpu.data        306931                       # number of ReadExReq accesses(hits+misses)
system.l2.ReadExReq_accesses::total            306931                       # number of ReadExReq accesses(hits+misses)
system.l2.ReadExReq_miss_rate::.cpu.data     0.458061                       # miss rate for ReadExReq accesses
system.l2.ReadExReq_miss_rate::total         0.458061                       # miss rate for ReadExReq accesses
system.l2.ReadExReq_avg_miss_latency::.cpu.data 85023.223062                       # average ReadExReq miss latency
system.l2.ReadExReq_avg_miss_latency::total 85023.223062                       # average ReadExReq miss latency
system.l2.ReadExReq_mshr_misses::.cpu.data       140593                       # number of ReadExReq MSHR misses
system.l2.ReadExReq_mshr_misses::total         140593                       # number of ReadExReq MSHR misses
system.l2.ReadExReq_mshr_miss_latency::.cpu.data  10547740000                       # number of ReadExReq MSHR miss cycles
system.l2.ReadExReq_mshr_miss_latency::total  10547740000                       # number of ReadExReq MSHR miss cycles
system.l2.ReadExReq_mshr_miss_rate::.cpu.data     0.458061                       # mshr miss rate for ReadExReq accesses
system.l2.ReadExReq_mshr_miss_rate::total     0.458061                       # mshr miss rate for ReadExReq accesses
system.l2.ReadExReq_avg_mshr_miss_latency::.cpu.data 75023.223062                       # average ReadExReq mshr miss latency
system.l2.ReadExReq_avg_mshr_miss_latency::total 75023.223062                       # average ReadExReq mshr miss latency
system.l2.ReadCleanReq_hits::.cpu.inst             49                       # number of ReadCleanReq hits
system.l2.ReadCleanReq_hits::total                 49                       # number of ReadCleanReq hits
system.l2.ReadCleanReq_misses::.cpu.inst          818                       # number of ReadCleanReq misses
system.l2.ReadCleanReq_misses::total              818                       # number of ReadCleanReq misses
system.l2.ReadCleanReq_miss_latency::.cpu.inst     63553500                       # number of ReadCleanReq miss cycles
system.l2.ReadCleanReq_miss_latency::total     63553500                       # number of ReadCleanReq miss cycles
system.l2.ReadCleanReq_accesses::.cpu.inst          867                       # number of ReadCleanReq accesses(hits+misses)
system.l2.ReadCleanReq_accesses::total            867                       # number of ReadCleanReq accesses(hits+misses)
system.l2.ReadCleanReq_miss_rate::.cpu.inst     0.943483                       # miss rate for ReadCleanReq accesses
system.l2.ReadCleanReq_miss_rate::total      0.943483                       # miss rate for ReadCleanReq accesses
system.l2.ReadCleanReq_avg_miss_latency::.cpu.inst 77693.765281                       # average ReadCleanReq miss latency
system.l2.ReadCleanReq_avg_miss_latency::total 77693.765281                       # average ReadCleanReq miss latency
system.l2.ReadCleanReq_mshr_misses::.cpu.inst          818                       # number of ReadCleanReq MSHR misses
system.l2.ReadCleanReq_mshr_misses::total          818                       # number of ReadCleanReq MSHR misses
system.l2.ReadCleanReq_mshr_miss_latency::.cpu.inst     55373500                       # number of ReadCleanReq MSHR miss cycles
system.l2.ReadCleanReq_mshr_miss_latency::total     55373500                       # number of ReadCleanReq MSHR miss cycles
system.l2.ReadCleanReq_mshr_miss_rate::.cpu.inst     0.943483                       # mshr miss rate for ReadCleanReq accesses
system.l2.ReadCleanReq_mshr_miss_rate::total     0.943483                       # mshr miss rate for ReadCleanReq accesses
system.l2.ReadCleanReq_avg_mshr_miss_latency::.cpu.inst 67693.765281                       # average ReadCleanReq mshr miss latency
system.l2.ReadCleanReq_avg_mshr_miss_latency::total 67693.765281                       # average ReadCleanReq mshr miss latency
system.l2.ReadSharedReq_hits::.cpu.data        406922                       # number of ReadSharedReq hits
system.l2.ReadSharedReq_hits::total            406922                       # number of ReadSharedReq hits
system.l2.ReadSharedReq_misses::.cpu.data        66574                       # number of ReadSharedReq misses
system.l2.ReadSharedReq_misses::total           66574                       # number of ReadSharedReq misses
system.l2.ReadSharedReq_miss_latency::.cpu.data   5266200500                       # number of ReadSharedReq miss cycles
system.l2.ReadSharedReq_miss_latency::total   5266200500                       # number of ReadSharedReq miss cycles
system.l2.ReadSharedReq_accesses::.cpu.data       473496                       # number of ReadSharedReq accesses(hits+misses)
system.l2.ReadSharedReq_accesses::total        473496                       # number of ReadSharedReq accesses(hits+misses)
system.l2.ReadSharedReq_miss_rate::.cpu.data     0.140601                       # miss rate for ReadSharedReq accesses
system.l2.ReadSharedReq_miss_rate::total     0.140601                       # miss rate for ReadSharedReq accesses
system.l2.ReadSharedReq_avg_miss_latency::.cpu.data 79102.960615                       # average ReadSharedReq miss latency
system.l2.ReadSharedReq_avg_miss_latency::total 79102.960615                       # average ReadSharedReq miss latency
system.l2.ReadSharedReq_mshr_hits::.cpu.data            8                       # number of ReadSharedReq MSHR hits
system.l2.ReadSharedReq_mshr_hits::total            8                       # number of ReadSharedReq MSHR hits
system.l2.ReadSharedReq_mshr_misses::.cpu.data        66566                       # number of ReadSharedReq MSHR misses
system.l2.ReadSharedReq_mshr_misses::total        66566                       # number of ReadSharedReq MSHR misses
system.l2.ReadSharedReq_mshr_miss_latency::.cpu.data   4599977000                       # number of ReadSharedReq MSHR miss cycles
system.l2.ReadSharedReq_mshr_miss_latency::total   4599977000                       # number of ReadSharedReq MSHR miss cycles
system.l2.ReadSharedReq_mshr_miss_rate::.cpu.data     0.140584                       # mshr miss rate for ReadSharedReq accesses
system.l2.ReadSharedReq_mshr_miss_rate::total     0.140584                       # mshr miss rate for ReadSharedReq accesses
system.l2.ReadSharedReq_avg_mshr_miss_latency::.cpu.data 69104.002043                       # average ReadSharedReq mshr miss latency
system.l2.ReadSharedReq_avg_mshr_miss_latency::total 69104.002043                       # average ReadSharedReq mshr miss latency
system.l2.tags.pwrStateResidencyTicks::UNDEFINED  84094867500                       # Cumulative time (in ticks) in various power states
system.l2.tags.tagsinuse                 31931.215162                       # Cycle average of tags in use
system.l2.tags.total_refs                     1560755                       # Total number of references to valid blocks.
system.l2.tags.sampled_refs                    208278                       # Sample count of references to valid blocks.
system.l2.tags.avg_refs                      7.493614                       # Average number of references to valid blocks.
system.l2.tags.warmup_cycle                     77000                       # Cycle when the warmup percentage was hit.
system.l2.tags.occ_blocks::.writebacks      82.651375                       # Average occupied blocks per requestor
system.l2.tags.occ_blocks::.cpu.inst       108.344950                       # Average occupied blocks per requestor
system.l2.tags.occ_blocks::.cpu.data     31740.218836                       # Average occupied blocks per requestor
system.l2.tags.occ_percent::.writebacks      0.002522                       # Average percentage of cache occupancy
system.l2.tags.occ_percent::.cpu.inst        0.003306                       # Average percentage of cache occupancy
system.l2.tags.occ_percent::.cpu.data        0.968635                       # Average percentage of cache occupancy
system.l2.tags.occ_percent::total            0.974463                       # Average percentage of cache occupancy
system.l2.tags.occ_task_id_blocks::1024         32768                       # Occupied blocks per task id
system.l2.tags.age_task_id_blocks_1024::0           15                       # Occupied blocks per task id
system.l2.tags.age_task_id_blocks_1024::1           96                       # Occupied blocks per task id
system.l2.tags.age_task_id_blocks_1024::2          690                       # Occupied blocks per task id
system.l2.tags.age_task_id_blocks_1024::3         9409                       # Occupied blocks per task id
system.l2.tags.age_task_id_blocks_1024::4        22558                       # Occupied blocks per task id
system.l2.tags.occ_task_id_percent::1024            1                       # Percentage of cache occupancy per task id
system.l2.tags.tag_accesses                  12694382                       # Number of tag accesses
system.l2.tags.data_accesses                 12694382                       # Number of data accesses
system.cpu_voltage_domain.voltage                   1                       # Voltage in Volts
system.mem_ctrls.pwrStateResidencyTicks::UNDEFINED  84094867500                       # Cumulative time (in ticks) in various power states
system.mem_ctrls.bytes_read::.cpu.inst          52352                       # Number of bytes read from this memory
system.mem_ctrls.bytes_read::.cpu.data       13258176                       # Number of bytes read from this memory
system.mem_ctrls.bytes_read::total           13310528                       # Number of bytes read from this memory
system.mem_ctrls.bytes_inst_read::.cpu.inst        52352                       # Number of instructions bytes read from this memory
system.mem_ctrls.bytes_inst_read::total         52352                       # Number of instructions bytes read from this memory
system.mem_ctrls.bytes_written::.writebacks      7519872                       # Number of bytes written to this memory
system.mem_ctrls.bytes_written::total         7519872                       # Number of bytes written to this memory
system.mem_ctrls.num_reads::.cpu.inst             818                       # Number of read requests responded to by this memory
system.mem_ctrls.num_reads::.cpu.data          207159                       # Number of read requests responded to by this memory
system.mem_ctrls.num_reads::total              207977                       # Number of read requests responded to by this memory
system.mem_ctrls.num_writes::.writebacks       117498                       # Number of write requests responded to by this memory
system.mem_ctrls.num_writes::total             117498                       # Number of write requests responded to by this memory
system.mem_ctrls.bw_read::.cpu.inst            622535                       # Total read bandwidth from this memory (bytes/s)
system.mem_ctrls.bw_read::.cpu.data         157657374                       # Total read bandwidth from this memory (bytes/s)
system.mem_ctrls.bw_read::total             158279909                       # Total read bandwidth from this memory (bytes/s)
system.mem_ctrls.bw_inst_read::.cpu.inst       622535                       # Instruction read bandwidth from this memory (bytes/s)
system.mem_ctrls.bw_inst_read::total           622535                       # Instruction read bandwidth from this memory (bytes/s)
system.mem_ctrls.bw_write::.writebacks       89421296                       # Write bandwidth from this memory (bytes/s)
system.mem_ctrls.bw_write::total             89421296                       # Write bandwidth from this memory (bytes/s)
system.mem_ctrls.bw_total::.writebacks       89421296                       # Total bandwidth to/from this memory (bytes/s)
system.mem_ctrls.bw_total::.cpu.inst           622535                       # Total bandwidth to/from this memory (bytes/s)
system.mem_ctrls.bw_total::.cpu.data        157657374                       # Total bandwidth to/from this memory (bytes/s)
system.mem_ctrls.bw_total::total            247701205                       # Total bandwidth to/from this memory (bytes/s)
system.mem_ctrls.avgPriority_.writebacks::samples    117498.00                       # Average QoS priority value for accepted requests
system.mem_ctrls.avgPriority_.cpu.inst::samples       818.00                       # Average QoS priority value for accepted requests
system.mem_ctrls.avgPriority_.cpu.data::samples    207124.00                       # Average QoS priority value for accepted requests
system.mem_ctrls.priorityMinLatency      0.000000018750                       # per QoS priority minimum request to response latency (s)
system.mem_ctrls.priorityMaxLatency      0.002289188500                       # per QoS priority maximum request to response latency (s)
system.mem_ctrls.numReadWriteTurnArounds         7027                       # Number of turnarounds from READ to WRITE
system.mem_ctrls.numWriteReadTurnArounds         7027                       # Number of turnarounds from WRITE to READ
system.mem_ctrls.numStayReadState              543979                       # Number of times bus staying in READ state
system.mem_ctrls.numStayWriteState             110595                       # Number of times bus staying in WRITE state
system.mem_ctrls.readReqs                      207977                       # Number of read requests accepted
system.mem_ctrls.writeReqs                     117498                       # Number of write requests accepted
system.mem_ctrls.readBursts                    207977                       # Number of DRAM read bursts, including those serviced by the write queue
system.mem_ctrls.writeBursts                   117498                       # Number of DRAM write bursts, including those merged in the write queue
system.mem_ctrls.servicedByWrQ                     35                       # Number of DRAM read bursts serviced by the write queue
system.mem_ctrls.mergedWrBursts                     0                       # Number of DRAM write bursts merged with an existing one
system.mem_ctrls.neitherReadNorWriteReqs            0                       # Number of requests that are neither read nor write
system.mem_ctrls.perBankRdBursts::0             13207                       # Per bank write bursts
system.mem_ctrls.perBankRdBursts::1             13137                       # Per bank write bursts
system.mem_ctrls.perBankRdBursts::2             13248                       # Per bank write bursts
system.mem_ctrls.perBankRdBursts::3             13084                       # Per bank write bursts
system.mem_ctrls.perBankRdBursts::4             13214                       # Per bank write bursts
system.mem_ctrls.perBankRdBursts::5             12915                       # Per bank write bursts
system.mem_ctrls.perBankRdBursts::6             12882                       # Per bank write bursts
system.mem_ctrls.perBankRdBursts::7             12654                       # Per bank write bursts
system.mem_ctrls.perBankRdBursts::8             12824                       # Per bank write bursts
system.mem_ctrls.perBankRdBursts::9             12953                       # Per bank write bursts
system.mem_ctrls.perBankRdBursts::10            12812                       # Per bank write bursts
system.mem_ctrls.perBankRdBursts::11            12840                       # Per bank write bursts
system.mem_ctrls.perBankRdBursts::12            12810                       # Per bank write bursts
system.mem_ctrls.perBankRdBursts::13            12957                       # Per bank write bursts
system.mem_ctrls.perBankRdBursts::14            13305                       # Per bank write bursts
system.mem_ctrls.perBankRdBursts::15            13100                       # Per bank write bursts
system.mem_ctrls.perBankWrBursts::0              7397                       # Per bank write bursts
system.mem_ctrls.perBankWrBursts::1              7522                       # Per bank write bursts
system.mem_ctrls.perBankWrBursts::2              7524                       # Per bank write bursts
system.mem_ctrls.perBankWrBursts::3              7460                       # Per bank write bursts
system.mem_ctrls.perBankWrBursts::4              7527                       # Per bank write bursts
system.mem_ctrls.perBankWrBursts::5              7365                       # Per bank write bursts
system.mem_ctrls.perBankWrBursts::6              7350                       # Per bank write bursts
system.mem_ctrls.perBankWrBursts::7              7297                       # Per bank write bursts
system.mem_ctrls.perBankWrBursts::8              7169                       # Per bank write bursts
system.mem_ctrls.perBankWrBursts::9              7226                       # Per bank write bursts
system.mem_ctrls.perBankWrBursts::10             7144                       # Per bank write bursts
system.mem_ctrls.perBankWrBursts::11             7210                       # Per bank write bursts
system.mem_ctrls.perBankWrBursts::12             7195                       # Per bank write bursts
system.mem_ctrls.perBankWrBursts::13             7210                       # Per bank write bursts
system.mem_ctrls.perBankWrBursts::14             7472                       # Per bank write bursts
system.mem_ctrls.perBankWrBursts::15             7407                       # Per bank write bursts
system.mem_ctrls.avgRdQLen                       1.07                       # Average read queue length when enqueuing
system.mem_ctrls.avgWrQLen                      24.65                       # Average write queue length when enqueuing
system.mem_ctrls.totQLat                   2772855250                       # Total ticks spent queuing
system.mem_ctrls.totBusLat                 1039710000                       # Total ticks spent in databus transfers
system.mem_ctrls.totMemAccLat              6671767750                       # Total ticks spent from burst creation until serviced by the DRAM
system.mem_ctrls.avgQLat                     13334.75                       # Average queueing delay per DRAM burst
system.mem_ctrls.avgBusLat                    5000.00                       # Average bus latency per DRAM burst
system.mem_ctrls.avgMemAccLat                32084.75                       # Average memory access latency per DRAM burst
system.mem_ctrls.numRdRetry                         0                       # Number of times read queue was full causing retry
system.mem_ctrls.numWrRetry                         0                       # Number of times write queue was full causing retry
system.mem_ctrls.readRowHits                   140329                       # Number of row buffer hits during reads
system.mem_ctrls.writeRowHits                   70654                       # Number of row buffer hits during writes
system.mem_ctrls.readRowHitRate                 67.48                       # Row buffer hit rate for reads
system.mem_ctrls.writeRowHitRate                60.13                       # Row buffer hit rate for writes
system.mem_ctrls.readPktSize::0                     0                       # Read request sizes (log2)
system.mem_ctrls.readPktSize::1                     0                       # Read request sizes (log2)
system.mem_ctrls.readPktSize::2                     0                       # Read request sizes (log2)
system.mem_ctrls.readPktSize::3                     0                       # Read request sizes (log2)
system.mem_ctrls.readPktSize::4                     0                       # Read request sizes (log2)
system.mem_ctrls.readPktSize::5                     0                       # Read request sizes (log2)
system.mem_ctrls.readPktSize::6                207977                       # Read request sizes (log2)
system.mem_ctrls.writePktSize::0                    0                       # Write request sizes (log2)
system.mem_ctrls.writePktSize::1                    0                       # Write request sizes (log2)
system.mem_ctrls.writePktSize::2                    0                       # Write request sizes (log2)
system.mem_ctrls.writePktSize::3                    0                       # Write request sizes (log2)
system.mem_ctrls.writePktSize::4                    0                       # Write request sizes (log2)
system.mem_ctrls.writePktSize::5                    0                       # Write request sizes (log2)
system.mem_ctrls.writePktSize::6               117498                       # Write request sizes (log2)
system.mem_ctrls.rdQLenPdf::0                  148362                       # What read queue length does an incoming req see
system.mem_ctrls.rdQLenPdf::1                   59568                       # What read queue length does an incoming req see
system.mem_ctrls.rdQLenPdf::2                      12                       # What read queue length does an incoming req see
system.mem_ctrls.rdQLenPdf::3                       0                       # What read queue length does an incoming req see
system.mem_ctrls.rdQLenPdf::4                       0                       # What read queue length does an incoming req see
system.mem_ctrls.rdQLenPdf::5                       0                       # What read queue length does an incoming req see
system.mem_ctrls.rdQLenPdf::6                       0                       # What read queue length does an incoming req see
system.mem_ctrls.rdQLenPdf::7                       0                       # What read queue length does an incoming req see
system.mem_ctrls.rdQLenPdf::8                       0                       # What read queue length does an incoming req see
system.mem_ctrls.rdQLenPdf::9                       0                       # What read queue length does an incoming req see
system.mem_ctrls.rdQLenPdf::10                      0                       # What read queue length does an incoming req see
system.mem_ctrls.rdQLenPdf::11                      0                       # What read queue length does an incoming req see
system.mem_ctrls.rdQLenPdf::12                      0                       # What read queue length does an incoming req see
system.mem_ctrls.rdQLenPdf::13                      0                       # What read queue length does an incoming req see
system.mem_ctrls.rdQLenPdf::14                      0                       # What read queue length does an incoming req see
system.mem_ctrls.rdQLenPdf::15                      0                       # What read queue length does an incoming req see
system.mem_ctrls.rdQLenPdf::16                      0                       # What read queue length does an incoming req see
system.mem_ctrls.rdQLenPdf::17                      0                       # What read queue length does an incoming req see
system.mem_ctrls.rdQLenPdf::18                      0                       # What read queue length does an incoming req see
system.mem_ctrls.rdQLenPdf::19                      0                       # What read queue length does an incoming req see
system.mem_ctrls.rdQLenPdf::20                      0                       # What read queue length does an incoming req see
system.mem_ctrls.rdQLenPdf::21                      0                       # What read queue length does an incoming req see
system.mem_ctrls.rdQLenPdf::22                      0                       # What read queue length does an incoming req see
system.mem_ctrls.rdQLenPdf::23                      0                       # What read queue length does an incoming req see
system.mem_ctrls.rdQLenPdf::24                      0                       # What read queue length does an incoming req see
system.mem_ctrls.rdQLenPdf::25                      0                       # What read queue length does an incoming req see
system.mem_ctrls.rdQLenPdf::26                      0                       # What read queue length does an incoming req see
system.mem_ctrls.rdQLenPdf::27                      0                       # What read queue length does an incoming req see
system.mem_ctrls.rdQLenPdf::28                      0                       # What read queue length does an incoming req see
system.mem_ctrls.rdQLenPdf::29                      0                       # What read queue length does an incoming req see
system.mem_ctrls.rdQLenPdf::30                      0                       # What read queue length does an incoming req see
system.mem_ctrls.rdQLenPdf::31                      0                       # What read queue length does an incoming req see
system.mem_ctrls.wrQLenPdf::0                       1                       # What write queue length does an incoming req see
system.mem_ctrls.wrQLenPdf::1                       1                       # What write queue length does an incoming req see
system.mem_ctrls.wrQLenPdf::2                       1                       # What write queue length does an incoming req see
system.mem_ctrls.wrQLenPdf::3                       1                       # What write queue length does an incoming req see
system.mem_ctrls.wrQLenPdf::4                       1                       # What write queue length does an incoming req see
system.mem_ctrls.wrQLenPdf::5                       1                       # What write queue length does an incoming req see
system.mem_ctrls.wrQLenPdf::6                       1                       # What write queue length does an incoming req see
system.mem_ctrls.wrQLenPdf::7                       1                       # What write queue length does an incoming req see
system.mem_ctrls.wrQLenPdf::8                       1                       # What write queue length does an incoming req see
system.mem_ctrls.wrQLenPdf::9                       1                       # What write queue length does an incoming req see
system.mem_ctrls.wrQLenPdf::10                      1                       # What write queue length does an incoming req see
system.mem_ctrls.wrQLenPdf::11                      1                       # What write queue length does an incoming req see
system.mem_ctrls.wrQLenPdf::12                      1                       # What write queue length does an incoming req see
system.mem_ctrls.wrQLenPdf::13                      1                       # What write queue length does an incoming req see
system.mem_ctrls.wrQLenPdf::14                      1                       # What write queue length does an incoming req see
system.mem_ctrls.wrQLenPdf::15                   2370                       # What write queue length does an incoming req see
system.mem_ctrls.wrQLenPdf::16                   2411                       # What write queue length does an incoming req see
system.mem_ctrls.wrQLenPdf::17                   5388                       # What write queue length does an incoming req see
system.mem_ctrls.wrQLenPdf::18                   7087                       # What write queue length does an incoming req see
system.mem_ctrls.wrQLenPdf::19                   7090                       # What write queue length does an incoming req see
system.mem_ctrls.wrQLenPdf::20                   7156                       # What write queue length does an incoming req see
system.mem_ctrls.wrQLenPdf::21                   7086                       # What write queue length does an incoming req see
system.mem_ctrls.wrQLenPdf::22                   7232                       # What write queue length does an incoming req see
system.mem_ctrls.wrQLenPdf::23                   7143                       # What write queue length does an incoming req see
system.mem_ctrls.wrQLenPdf::24                   7287                       # What write queue length does an incoming req see
system.mem_ctrls.wrQLenPdf::25                   7176                       # What write queue length does an incoming req see
system.mem_ctrls.wrQLenPdf::26                   7129                       # What write queue length does an incoming req see
system.mem_ctrls.wrQLenPdf::27                   7092                       # What write queue length does an incoming req see
system.mem_ctrls.wrQLenPdf::28                   7623                       # What write queue length does an incoming req see
system.mem_ctrls.wrQLenPdf::29                   7113                       # What write queue length does an incoming req see
system.mem_ctrls.wrQLenPdf::30                   7038                       # What write queue length does an incoming req see
system.mem_ctrls.wrQLenPdf::31                   7031                       # What write queue length does an incoming req see
system.mem_ctrls.wrQLenPdf::32                   7027                       # What write queue length does an incoming req see
system.mem_ctrls.wrQLenPdf::33                      4                       # What write queue length does an incoming req see
system.mem_ctrls.wrQLenPdf::34                      0                       # What write queue length does an incoming req see
system.mem_ctrls.wrQLenPdf::35                      0                       # What write queue length does an incoming req see
system.mem_ctrls.wrQLenPdf::36                      0                       # What write queue length does an incoming req see
system.mem_ctrls.wrQLenPdf::37                      0                       # What write queue length does an incoming req see
system.mem_ctrls.wrQLenPdf::38                      0                       # What write queue length does an incoming req see
system.mem_ctrls.wrQLenPdf::39                      0                       # What write queue length does an incoming req see
system.mem_ctrls.wrQLenPdf::40                      0                       # What write queue length does an incoming req see
system.mem_ctrls.wrQLenPdf::41                      0                       # What write queue length does an incoming req see
system.mem_ctrls.wrQLenPdf::42                      0                       # What write queue length does an incoming req see
system.mem_ctrls.wrQLenPdf::43                      0                       # What write queue length does an incoming req see
system.mem_ctrls.wrQLenPdf::44                      0                       # What write queue length does an incoming req see
system.mem_ctrls.wrQLenPdf::45                      0                       # What write queue length does an incoming req see
system.mem_ctrls.wrQLenPdf::46                      0                       # What write queue length does an incoming req see
system.mem_ctrls.wrQLenPdf::47                      0                       # What write queue length does an incoming req see
system.mem_ctrls.wrQLenPdf::48                      0                       # What write queue length does an incoming req see
system.mem_ctrls.wrQLenPdf::49                      0                       # What write queue length does an incoming req see
system.mem_ctrls.wrQLenPdf::50                      0                       # What write queue length does an incoming req see
system.mem_ctrls.wrQLenPdf::51                      0                       # What write queue length does an incoming req see
system.mem_ctrls.wrQLenPdf::52                      0                       # What write queue length does an incoming req see
system.mem_ctrls.wrQLenPdf::53                      0                       # What write queue length does an incoming req see
system.mem_ctrls.wrQLenPdf::54                      0                       # What write queue length does an incoming req see
system.mem_ctrls.wrQLenPdf::55                      0                       # What write queue length does an incoming req see
system.mem_ctrls.wrQLenPdf::56                      0                       # What write queue length does an incoming req see
system.mem_ctrls.wrQLenPdf::57                      0                       # What write queue length does an incoming req see
system.mem_ctrls.wrQLenPdf::58                      0                       # What write queue length does an incoming req see
system.mem_ctrls.wrQLenPdf::59                      0                       # What write queue length does an incoming req see
system.mem_ctrls.wrQLenPdf::60                      0                       # What write queue length does an incoming req see
system.mem_ctrls.wrQLenPdf::61                      0                       # What write queue length does an incoming req see
system.mem_ctrls.wrQLenPdf::62                      0                       # What write queue length does an incoming req see
system.mem_ctrls.wrQLenPdf::63                      0                       # What write queue length does an incoming req see
system.mem_ctrls.bytesPerActivate::samples       114433                       # Bytes accessed per row activation
system.mem_ctrls.bytesPerActivate::mean    181.996172                       # Bytes accessed per row activation
system.mem_ctrls.bytesPerActivate::gmean   107.234684                       # Bytes accessed per row activation
system.mem_ctrls.bytesPerActivate::stdev   250.120621                       # Bytes accessed per row activation
system.mem_ctrls.bytesPerActivate::0-127        77760     67.95%     67.95% # Bytes accessed per row activation
system.mem_ctrls.bytesPerActivate::128-255        15578     13.61%     81.57% # Bytes accessed per row activation
system.mem_ctrls.bytesPerActivate::256-383         2629      2.30%     83.86% # Bytes accessed per row activation
system.mem_ctrls.bytesPerActivate::384-511         1630      1.42%     85.29% # Bytes accessed per row activation
system.mem_ctrls.bytesPerActivate::512-639         8662      7.57%     92.86% # Bytes accessed per row activation
system.mem_ctrls.bytesPerActivate::640-767          631      0.55%     93.41% # Bytes accessed per row activation
system.mem_ctrls.bytesPerActivate::768-895         1328      1.16%     94.57% # Bytes accessed per row activation
system.mem_ctrls.bytesPerActivate::896-1023          526      0.46%     95.03% # Bytes accessed per row activation
system.mem_ctrls.bytesPerActivate::1024-1151         5689      4.97%    100.00% # Bytes accessed per row activation
system.mem_ctrls.bytesPerActivate::total       114433                       # Bytes accessed per row activation
system.mem_ctrls.rdPerTurnAround::samples         7027                       # Reads before turning the bus around for writes
system.mem_ctrls.rdPerTurnAround::mean      29.590579                       # Reads before turning the bus around for writes
system.mem_ctrls.rdPerTurnAround::gmean     23.387919                       # Reads before turning the bus around for writes
system.mem_ctrls.rdPerTurnAround::stdev     51.854708                       # Reads before turning the bus around for writes
system.mem_ctrls.rdPerTurnAround::0-127          6864     97.68%     97.68% # Reads before turning the bus around for writes
system.mem_ctrls.rdPerTurnAround::128-255           33      0.47%     98.15% # Reads before turning the bus around for writes
system.mem_ctrls.rdPerTurnAround::256-383          127      1.81%     99.96% # Reads before turning the bus around for writes
system.mem_ctrls.rdPerTurnAround::512-639            1      0.01%     99.97% # Reads before turning the bus around for writes
system.mem_ctrls.rdPerTurnAround::1664-1791            1      0.01%     99.99% # Reads before turning the bus around for writes
system.mem_ctrls.rdPerTurnAround::2560-2687            1      0.01%    100.00% # Reads before turning the bus around for writes
system.mem_ctrls.rdPerTurnAround::total          7027                       # Reads before turning the bus around for writes
system.mem_ctrls.wrPerTurnAround::samples         7027                       # Writes before turning the bus around for reads
system.mem_ctrls.wrPerTurnAround::mean      16.717660                       # Writes before turning the bus around for reads
[...]
system.cpu.icache.ReadReq_avg_miss_latency::.cpu.inst 76450.980392                       # average ReadReq miss latency
system.cpu.icache.ReadReq_avg_miss_latency::total 76450.980392                       # average ReadReq miss latency
system.cpu.icache.ReadReq_mshr_misses::.cpu.inst          867                       # number of ReadReq MSHR misses
system.cpu.icache.ReadReq_mshr_misses::total          867                       # number of ReadReq MSHR misses
system.cpu.icache.ReadReq_mshr_miss_latency::.cpu.inst     65416000                       # number of ReadReq MSHR miss cycles
system.cpu.icache.ReadReq_mshr_miss_latency::total     65416000                       # number of ReadReq MSHR miss cycles
system.cpu.icache.ReadReq_mshr_miss_rate::.cpu.inst     0.000060                       # mshr miss rate for ReadReq accesses
system.cpu.icache.ReadReq_mshr_miss_rate::total     0.000060                       # mshr miss rate for ReadReq accesses
system.cpu.icache.ReadReq_avg_mshr_miss_latency::.cpu.inst 75450.980392                       # average ReadReq mshr miss latency
system.cpu.icache.ReadReq_avg_mshr_miss_latency::total 75450.980392                       # average ReadReq mshr miss latency
system.cpu.icache.tags.pwrStateResidencyTicks::UNDEFINED  84094867500                       # Cumulative time (in ticks) in various power states
system.cpu.icache.tags.tagsinuse           504.263065                       # Cycle average of tags in use
system.cpu.icache.tags.total_refs            14390798                       # Total number of references to valid blocks.
system.cpu.icache.tags.sampled_refs               867                       # Sample count of references to valid blocks.
system.cpu.icache.tags.avg_refs          16598.382930                       # Average number of references to valid blocks.
system.cpu.icache.tags.warmup_cycle             87500                       # Cycle when the warmup percentage was hit.
system.cpu.icache.tags.occ_blocks::.cpu.inst   504.263065                       # Average occupied blocks per requestor
system.cpu.icache.tags.occ_percent::.cpu.inst     0.984889                       # Average percentage of cache occupancy
system.cpu.icache.tags.occ_percent::total     0.984889                       # Average percentage of cache occupancy
system.cpu.icache.tags.occ_task_id_blocks::1024          512                       # Occupied blocks per task id
system.cpu.icache.tags.age_task_id_blocks_1024::4          512                       # Occupied blocks per task id
system.cpu.icache.tags.occ_task_id_percent::1024            1                       # Percentage of cache occupancy per task id
system.cpu.icache.tags.tag_accesses         115127251                       # Number of tag accesses
system.cpu.icache.tags.data_accesses        115127251                       # Number of data accesses
system.cpu.dtb.walker.pwrStateResidencyTicks::UNDEFINED  84094867500                       # Cumulative time (in ticks) in various power states
system.cpu.dtb.stage2_mmu.stage2_tlb.walker.pwrStateResidencyTicks::UNDEFINED  84094867500                       # Cumulative time (in ticks) in various power states
system.cpu.dcache.pwrStateResidencyTicks::UNDEFINED  84094867500                       # Cumulative time (in ticks) in various power states
system.cpu.dcache.demand_hits::.cpu.data     57636007                       # number of demand (read+write) hits
system.cpu.dcache.demand_hits::total         57636007                       # number of demand (read+write) hits
system.cpu.dcache.overall_hits::.cpu.data     57636362                       # number of overall hits
system.cpu.dcache.overall_hits::total        57636362                       # number of overall hits
system.cpu.dcache.demand_misses::.cpu.data       803854                       # number of demand (read+write) misses
system.cpu.dcache.demand_misses::total         803854                       # number of demand (read+write) misses
system.cpu.dcache.overall_misses::.cpu.data       895068                       # number of overall misses
system.cpu.dcache.overall_misses::total        895068                       # number of overall misses
system.cpu.dcache.demand_miss_latency::.cpu.data  26481234000                       # number of demand (read+write) miss cycles
system.cpu.dcache.demand_miss_latency::total  26481234000                       # number of demand (read+write) miss cycles
system.cpu.dcache.overall_miss_latency::.cpu.data  26481234000                       # number of overall miss cycles
system.cpu.dcache.overall_miss_latency::total  26481234000                       # number of overall miss cycles
system.cpu.dcache.demand_accesses::.cpu.data     58439861                       # number of demand (read+write) accesses
system.cpu.dcache.demand_accesses::total     58439861                       # number of demand (read+write) accesses
system.cpu.dcache.overall_accesses::.cpu.data     58531430                       # number of overall (read+write) accesses
system.cpu.dcache.overall_accesses::total     58531430                       # number of overall (read+write) accesses
system.cpu.dcache.demand_miss_rate::.cpu.data     0.013755                       # miss rate for demand accesses
system.cpu.dcache.demand_miss_rate::total     0.013755                       # miss rate for demand accesses
system.cpu.dcache.overall_miss_rate::.cpu.data     0.015292                       # miss rate for overall accesses
system.cpu.dcache.overall_miss_rate::total     0.015292                       # miss rate for overall accesses
system.cpu.dcache.demand_avg_miss_latency::.cpu.data 32942.840367                       # average overall miss latency
system.cpu.dcache.demand_avg_miss_latency::total 32942.840367                       # average overall miss latency
system.cpu.dcache.overall_avg_miss_latency::.cpu.data 29585.723096                       # average overall miss latency
system.cpu.dcache.overall_avg_miss_latency::total 29585.723096                       # average overall miss latency
system.cpu.dcache.blocked_cycles::no_mshrs            0                       # number of cycles access was blocked
system.cpu.dcache.blocked_cycles::no_targets            0                       # number of cycles access was blocked
system.cpu.dcache.blocked::no_mshrs                 0                       # number of cycles access was blocked
system.cpu.dcache.blocked::no_targets               0                       # number of cycles access was blocked
system.cpu.dcache.avg_blocked_cycles::no_mshrs          nan                       # average number of cycles each access was blocked
system.cpu.dcache.avg_blocked_cycles::no_targets          nan                       # average number of cycles each access was blocked
system.cpu.dcache.writebacks::.writebacks       684012                       # number of writebacks
system.cpu.dcache.writebacks::total            684012                       # number of writebacks
system.cpu.dcache.demand_mshr_hits::.cpu.data        69064                       # number of demand (read+write) MSHR hits
system.cpu.dcache.demand_mshr_hits::total        69064                       # number of demand (read+write) MSHR hits
system.cpu.dcache.overall_mshr_hits::.cpu.data        69064                       # number of overall MSHR hits
system.cpu.dcache.overall_mshr_hits::total        69064                       # number of overall MSHR hits
system.cpu.dcache.demand_mshr_misses::.cpu.data       734790                       # number of demand (read+write) MSHR misses
system.cpu.dcache.demand_mshr_misses::total       734790                       # number of demand (read+write) MSHR misses
system.cpu.dcache.overall_mshr_misses::.cpu.data       780427                       # number of overall MSHR misses
system.cpu.dcache.overall_mshr_misses::total       780427                       # number of overall MSHR misses
system.cpu.dcache.demand_mshr_miss_latency::.cpu.data  20894231000                       # number of demand (read+write) MSHR miss cycles
system.cpu.dcache.demand_mshr_miss_latency::total  20894231000                       # number of demand (read+write) MSHR miss cycles
system.cpu.dcache.overall_mshr_miss_latency::.cpu.data  24450842500                       # number of overall MSHR miss cycles
system.cpu.dcache.overall_mshr_miss_latency::total  24450842500                       # number of overall MSHR miss cycles
system.cpu.dcache.demand_mshr_miss_rate::.cpu.data     0.012573                       # mshr miss rate for demand accesses
system.cpu.dcache.demand_mshr_miss_rate::total     0.012573                       # mshr miss rate for demand accesses
system.cpu.dcache.overall_mshr_miss_rate::.cpu.data     0.013333                       # mshr miss rate for overall accesses
system.cpu.dcache.overall_mshr_miss_rate::total     0.013333                       # mshr miss rate for overall accesses
system.cpu.dcache.demand_avg_mshr_miss_latency::.cpu.data 28435.649641                       # average overall mshr miss latency
system.cpu.dcache.demand_avg_mshr_miss_latency::total 28435.649641                       # average overall mshr miss latency
system.cpu.dcache.overall_avg_mshr_miss_latency::.cpu.data 31330.082762                       # average overall mshr miss latency
system.cpu.dcache.overall_avg_mshr_miss_latency::total 31330.082762                       # average overall mshr miss latency
system.cpu.dcache.replacements                 779403                       # number of replacements
system.cpu.dcache.ReadReq_hits::.cpu.data     45195570                       # number of ReadReq hits
system.cpu.dcache.ReadReq_hits::total        45195570                       # number of ReadReq hits
system.cpu.dcache.ReadReq_misses::.cpu.data       435753                       # number of ReadReq misses
system.cpu.dcache.ReadReq_misses::total        435753                       # number of ReadReq misses
system.cpu.dcache.ReadReq_miss_latency::.cpu.data   7564260000                       # number of ReadReq miss cycles
system.cpu.dcache.ReadReq_miss_latency::total   7564260000                       # number of ReadReq miss cycles
system.cpu.dcache.ReadReq_accesses::.cpu.data     45631323                       # number of ReadReq accesses(hits+misses)
system.cpu.dcache.ReadReq_accesses::total     45631323                       # number of ReadReq accesses(hits+misses)
system.cpu.dcache.ReadReq_miss_rate::.cpu.data     0.009549                       # miss rate for ReadReq accesses
system.cpu.dcache.ReadReq_miss_rate::total     0.009549                       # miss rate for ReadReq accesses
system.cpu.dcache.ReadReq_avg_miss_latency::.cpu.data 17359.054327                       # average ReadReq miss latency
system.cpu.dcache.ReadReq_avg_miss_latency::total 17359.054327                       # average ReadReq miss latency
system.cpu.dcache.ReadReq_mshr_hits::.cpu.data         7894                       # number of ReadReq MSHR hits
system.cpu.dcache.ReadReq_mshr_hits::total         7894                       # number of ReadReq MSHR hits
system.cpu.dcache.ReadReq_mshr_misses::.cpu.data       427859                       # number of ReadReq MSHR misses
system.cpu.dcache.ReadReq_mshr_misses::total       427859                       # number of ReadReq MSHR misses
system.cpu.dcache.ReadReq_mshr_miss_latency::.cpu.data   6732264000                       # number of ReadReq MSHR miss cycles
system.cpu.dcache.ReadReq_mshr_miss_latency::total   6732264000                       # number of ReadReq MSHR miss cycles
system.cpu.dcache.ReadReq_mshr_miss_rate::.cpu.data     0.009376                       # mshr miss rate for ReadReq accesses
system.cpu.dcache.ReadReq_mshr_miss_rate::total     0.009376                       # mshr miss rate for ReadReq accesses
system.cpu.dcache.ReadReq_avg_mshr_miss_latency::.cpu.data 15734.772437                       # average ReadReq mshr miss latency
system.cpu.dcache.ReadReq_avg_mshr_miss_latency::total 15734.772437                       # average ReadReq mshr miss latency
system.cpu.dcache.WriteReq_hits::.cpu.data     12440437                       # number of WriteReq hits
system.cpu.dcache.WriteReq_hits::total       12440437                       # number of WriteReq hits
system.cpu.dcache.WriteReq_misses::.cpu.data       368101                       # number of WriteReq misses
system.cpu.dcache.WriteReq_misses::total       368101                       # number of WriteReq misses
system.cpu.dcache.WriteReq_miss_latency::.cpu.data  18916974000                       # number of WriteReq miss cycles
system.cpu.dcache.WriteReq_miss_latency::total  18916974000                       # number of WriteReq miss cycles
system.cpu.dcache.WriteReq_accesses::.cpu.data     12808538                       # number of WriteReq accesses(hits+misses)
system.cpu.dcache.WriteReq_accesses::total     12808538                       # number of WriteReq accesses(hits+misses)
system.cpu.dcache.WriteReq_miss_rate::.cpu.data     0.028739                       # miss rate for WriteReq accesses
system.cpu.dcache.WriteReq_miss_rate::total     0.028739                       # miss rate for WriteReq accesses
system.cpu.dcache.WriteReq_avg_miss_latency::.cpu.data 51390.716135                       # average WriteReq miss latency
system.cpu.dcache.WriteReq_avg_miss_latency::total 51390.716135                       # average WriteReq miss latency
system.cpu.dcache.WriteReq_mshr_hits::.cpu.data        61170                       # number of WriteReq MSHR hits
system.cpu.dcache.WriteReq_mshr_hits::total        61170                       # number of WriteReq MSHR hits
system.cpu.dcache.WriteReq_mshr_misses::.cpu.data       306931                       # number of WriteReq MSHR misses
system.cpu.dcache.WriteReq_mshr_misses::total       306931                       # number of WriteReq MSHR misses
system.cpu.dcache.WriteReq_mshr_miss_latency::.cpu.data  14161967000                       # number of WriteReq MSHR miss cycles
system.cpu.dcache.WriteReq_mshr_miss_latency::total  14161967000                       # number of WriteReq MSHR miss cycles
system.cpu.dcache.WriteReq_mshr_miss_rate::.cpu.data     0.023963                       # mshr miss rate for WriteReq accesses
system.cpu.dcache.WriteReq_mshr_miss_rate::total     0.023963                       # mshr miss rate for WriteReq accesses
system.cpu.dcache.WriteReq_avg_mshr_miss_latency::.cpu.data 46140.556021                       # average WriteReq mshr miss latency
system.cpu.dcache.WriteReq_avg_mshr_miss_latency::total 46140.556021                       # average WriteReq mshr miss latency
system.cpu.dcache.SoftPFReq_hits::.cpu.data          355                       # number of SoftPFReq hits
system.cpu.dcache.SoftPFReq_hits::total           355                       # number of SoftPFReq hits
system.cpu.dcache.SoftPFReq_misses::.cpu.data        91214                       # number of SoftPFReq misses
system.cpu.dcache.SoftPFReq_misses::total        91214                       # number of SoftPFReq misses
system.cpu.dcache.SoftPFReq_accesses::.cpu.data        91569                       # number of SoftPFReq accesses(hits+misses)
system.cpu.dcache.SoftPFReq_accesses::total        91569                       # number of SoftPFReq accesses(hits+misses)
system.cpu.dcache.SoftPFReq_miss_rate::.cpu.data     0.996123                       # miss rate for SoftPFReq accesses
system.cpu.dcache.SoftPFReq_miss_rate::total     0.996123                       # miss rate for SoftPFReq accesses
system.cpu.dcache.SoftPFReq_mshr_misses::.cpu.data        45637                       # number of SoftPFReq MSHR misses
system.cpu.dcache.SoftPFReq_mshr_misses::total        45637                       # number of SoftPFReq MSHR misses
system.cpu.dcache.SoftPFReq_mshr_miss_latency::.cpu.data   3556611500                       # number of SoftPFReq MSHR miss cycles
system.cpu.dcache.SoftPFReq_mshr_miss_latency::total   3556611500                       # number of SoftPFReq MSHR miss cycles
system.cpu.dcache.SoftPFReq_mshr_miss_rate::.cpu.data     0.498389                       # mshr miss rate for SoftPFReq accesses
system.cpu.dcache.SoftPFReq_mshr_miss_rate::total     0.498389                       # mshr miss rate for SoftPFReq accesses
system.cpu.dcache.SoftPFReq_avg_mshr_miss_latency::.cpu.data 77932.631417                       # average SoftPFReq mshr miss latency
system.cpu.dcache.SoftPFReq_avg_mshr_miss_latency::total 77932.631417                       # average SoftPFReq mshr miss latency
system.cpu.dcache.LoadLockedReq_hits::.cpu.data           38                       # number of LoadLockedReq hits
system.cpu.dcache.LoadLockedReq_hits::total           38                       # number of LoadLockedReq hits
system.cpu.dcache.LoadLockedReq_accesses::.cpu.data           38                       # number of LoadLockedReq accesses(hits+misses)
system.cpu.dcache.LoadLockedReq_accesses::total           38                       # number of LoadLockedReq accesses(hits+misses)
system.cpu.dcache.StoreCondReq_hits::.cpu.data           38                       # number of StoreCondReq hits
system.cpu.dcache.StoreCondReq_hits::total           38                       # number of StoreCondReq hits
system.cpu.dcache.StoreCondReq_accesses::.cpu.data           38                       # number of StoreCondReq accesses(hits+misses)
system.cpu.dcache.StoreCondReq_accesses::total           38                       # number of StoreCondReq accesses(hits+misses)
system.cpu.dcache.tags.pwrStateResidencyTicks::UNDEFINED  84094867500                       # Cumulative time (in ticks) in various power states
system.cpu.dcache.tags.tagsinuse          1009.176248                       # Cycle average of tags in use
system.cpu.dcache.tags.total_refs            58416865                       # Total number of references to valid blocks.
system.cpu.dcache.tags.sampled_refs            780427                       # Sample count of references to valid blocks.
system.cpu.dcache.tags.avg_refs             74.852440                       # Average number of references to valid blocks.
system.cpu.dcache.tags.warmup_cycle            176500                       # Cycle when the warmup percentage was hit.
system.cpu.dcache.tags.occ_blocks::.cpu.data  1009.176248                       # Average occupied blocks per requestor
system.cpu.dcache.tags.occ_percent::.cpu.data     0.985524                       # Average percentage of cache occupancy
system.cpu.dcache.tags.occ_percent::total     0.985524                       # Average percentage of cache occupancy
system.cpu.dcache.tags.occ_task_id_blocks::1024         1024                       # Occupied blocks per task id
system.cpu.dcache.tags.age_task_id_blocks_1024::0          204                       # Occupied blocks per task id
system.cpu.dcache.tags.age_task_id_blocks_1024::1          477                       # Occupied blocks per task id
system.cpu.dcache.tags.age_task_id_blocks_1024::2          342                       # Occupied blocks per task id
system.cpu.dcache.tags.age_task_id_blocks_1024::3            1                       # Occupied blocks per task id
system.cpu.dcache.tags.occ_task_id_percent::1024            1                       # Percentage of cache occupancy per task id
system.cpu.dcache.tags.tag_accesses         117843439                       # Number of tag accesses
system.cpu.dcache.tags.data_accesses        117843439                       # Number of data accesses
system.cpu.itb.walker.pwrStateResidencyTicks::UNDEFINED  84094867500                       # Cumulative time (in ticks) in various power states
system.cpu.itb.stage2_mmu.stage2_tlb.walker.pwrStateResidencyTicks::UNDEFINED  84094867500                       # Cumulative time (in ticks) in various power states

---------- End Simulation Statistics   ----------
