
---------- Begin Simulation Statistics ----------
final_tick                                 6699721500                       # Number of ticks from beginning of simulation (restored from checkpoints and never reset)
host_inst_rate                                  56041                       # Simulator instruction rate (inst/s)
host_mem_usage                                 681904                       # Number of bytes of host memory used
host_op_rate                                    58513                       # Simulator op (including micro ops) rate (op/s)
host_seconds                                   178.44                       # Real time elapsed on the host
host_tick_rate                               37545553                       # Simulator tick rate (ticks/s)
sim_freq                                 1000000000000                       # Frequency of simulated ticks
sim_insts                                    10000000                       # Number of instructions simulated
sim_ops                                      10441219                       # Number of ops (including micro ops) simulated
sim_seconds                                  0.006700                       # Number of seconds simulated
sim_ticks                                  6699721500                       # Number of ticks simulated
system.cpu.branchPred.BTBCorrect                    0                       # Number of correct BTB predictions (this stat may not work properly.
system.cpu.branchPred.BTBHitPct             81.893895                       # BTB Hit Percentage
system.cpu.branchPred.BTBHits                  479067                       # Number of BTB hits
system.cpu.branchPred.BTBLookups               584985                       # Number of BTB lookups
system.cpu.branchPred.RASInCorrect                 33                       # Number of incorrect RAS predictions.
system.cpu.branchPred.condIncorrect             41304                       # Number of conditional branches incorrect
system.cpu.branchPred.condPredicted            622138                       # Number of conditional branches predicted
system.cpu.branchPred.indirectHits              16411                       # Number of indirect target hits.
system.cpu.branchPred.indirectLookups           88428                       # Number of indirect predictor lookups.
system.cpu.branchPred.indirectMisses            72017                       # Number of indirect misses.
system.cpu.branchPred.lookups                  823868                       # Number of BP lookups
system.cpu.branchPred.usedRAS                   53894                       # Number of times the RAS was used to get a target.
system.cpu.branchPredindirectMispredicted         4962                       # Number of mispredicted indirect branches.
system.cpu.committedInsts                    10000000                       # Number of instructions committed
system.cpu.committedOps                      10441219                       # Number of ops (including micro ops) committed
system.cpu.cpi                               1.339944                       # CPI: cycles per instruction
system.cpu.discardedOps                        110766                       # Number of ops (including micro ops) which were discarded before commit
system.cpu.dtb.accesses                             0                       # DTB accesses
system.cpu.dtb.align_faults                         0                       # Number of TLB faults due to alignment restrictions
system.cpu.dtb.domain_faults                        0                       # Number of TLB faults due to domain restrictions
system.cpu.dtb.flush_entries                        0                       # Number of entries that have been flushed from TLB
system.cpu.dtb.flush_tlb                            0                       # Number of times complete TLB was flushed
system.cpu.dtb.flush_tlb_asid                       0                       # Number of times TLB was flushed by ASID
system.cpu.dtb.flush_tlb_mva                        0                       # Number of times TLB was flushed by MVA
system.cpu.dtb.flush_tlb_mva_asid                   0                       # Number of times TLB was flushed by MVA & ASID
system.cpu.dtb.hits                                 0                       # DTB hits
system.cpu.dtb.inst_accesses                        0                       # ITB inst accesses
system.cpu.dtb.inst_hits                            0                       # ITB inst hits
system.cpu.dtb.inst_misses                          0                       # ITB inst misses
system.cpu.dtb.misses                               0                       # DTB misses
system.cpu.dtb.perms_faults                         0                       # Number of TLB faults due to permissions restrictions
system.cpu.dtb.prefetch_faults                      0                       # Number of TLB faults due to prefetch
system.cpu.dtb.read_accesses                        0                       # DTB read accesses
system.cpu.dtb.read_hits                            0                       # DTB read hits
system.cpu.dtb.read_misses                          0                       # DTB read misses
system.cpu.dtb.stage2_mmu.stage2_tlb.accesses            0                       # DTB accesses
system.cpu.dtb.stage2_mmu.stage2_tlb.align_faults            0                       # Number of TLB faults due to alignment restrictions
system.cpu.dtb.stage2_mmu.stage2_tlb.domain_faults            0                       # Number of TLB faults due to domain restrictions
system.cpu.dtb.stage2_mmu.stage2_tlb.flush_entries            0                       # Number of entries that have been flushed from TLB
system.cpu.dtb.stage2_mmu.stage2_tlb.flush_tlb            0                       # Number of times complete TLB was flushed
system.cpu.dtb.stage2_mmu.stage2_tlb.flush_tlb_asid            0                       # Number of times TLB was flushed by ASID
system.cpu.dtb.stage2_mmu.stage2_tlb.flush_tlb_mva            0                       # Number of times TLB was flushed by MVA
system.cpu.dtb.stage2_mmu.stage2_tlb.flush_tlb_mva_asid            0                       # Number of times TLB was flushed by MVA & ASID
system.cpu.dtb.stage2_mmu.stage2_tlb.hits            0                       # DTB hits
system.cpu.dtb.stage2_mmu.stage2_tlb.inst_accesses            0                       # ITB inst accesses
system.cpu.dtb.stage2_mmu.stage2_tlb.inst_hits            0                       # ITB inst hits
system.cpu.dtb.stage2_mmu.stage2_tlb.inst_misses            0                       # ITB inst misses
system.cpu.dtb.stage2_mmu.stage2_tlb.misses            0                       # DTB misses
system.cpu.dtb.stage2_mmu.stage2_tlb.perms_faults            0                       # Number of TLB faults due to permissions restrictions
system.cpu.dtb.stage2_mmu.stage2_tlb.prefetch_faults            0                       # Number of TLB faults due to prefetch
system.cpu.dtb.stage2_mmu.stage2_tlb.read_accesses            0                       # DTB read accesses
system.cpu.dtb.stage2_mmu.stage2_tlb.read_hits            0                       # DTB read hits
system.cpu.dtb.stage2_mmu.stage2_tlb.read_misses            0                       # DTB read misses
system.cpu.dtb.stage2_mmu.stage2_tlb.walker.walkRequestOrigin_Requested::Data            0                       # Table walker requests started/completed, data/inst
system.cpu.dtb.stage2_mmu.stage2_tlb.walker.walkRequestOrigin_Requested::Inst            0                       # Table walker requests started/completed, data/inst
system.cpu.dtb.stage2_mmu.stage2_tlb.walker.walkRequestOrigin_Requested::total            0                       # Table walker requests started/completed, data/inst
system.cpu.dtb.stage2_mmu.stage2_tlb.walker.walkRequestOrigin_Completed::Data            0                       # Table walker requests started/completed, data/inst
system.cpu.dtb.stage2_mmu.stage2_tlb.walker.walkRequestOrigin_Completed::Inst            0                       # Table walker requests started/completed, data/inst
system.cpu.dtb.stage2_mmu.stage2_tlb.walker.walkRequestOrigin_Completed::total            0                       # Table walker requests started/completed, data/inst
system.cpu.dtb.stage2_mmu.stage2_tlb.walker.walkRequestOrigin::total            0                       # Table walker requests started/completed, data/inst
system.cpu.dtb.stage2_mmu.stage2_tlb.walker.walks            0                       # Table walker walks requested
system.cpu.dtb.stage2_mmu.stage2_tlb.write_accesses            0                       # DTB write accesses
system.cpu.dtb.stage2_mmu.stage2_tlb.write_hits            0                       # DTB write hits
system.cpu.dtb.stage2_mmu.stage2_tlb.write_misses            0                       # DTB write misses
system.cpu.dtb.walker.walkRequestOrigin_Requested::Data            0                       # Table walker requests started/completed, data/inst
system.cpu.dtb.walker.walkRequestOrigin_Requested::Inst            0                       # Table walker requests started/completed, data/inst
system.cpu.dtb.walker.walkRequestOrigin_Requested::total            0                       # Table walker requests started/completed, data/inst
system.cpu.dtb.walker.walkRequestOrigin_Completed::Data            0                       # Table walker requests started/completed, data/inst
system.cpu.dtb.walker.walkRequestOrigin_Completed::Inst            0                       # Table walker requests started/completed, data/inst
system.cpu.dtb.walker.walkRequestOrigin_Completed::total            0                       # Table walker requests started/completed, data/inst
system.cpu.dtb.walker.walkRequestOrigin::total            0                       # Table walker requests started/completed, data/inst
system.cpu.dtb.walker.walks                         0                       # Table walker walks requested
system.cpu.dtb.write_accesses                       0                       # DTB write accesses
system.cpu.dtb.write_hits                           0                       # DTB write hits
system.cpu.dtb.write_misses                         0                       # DTB write misses
system.cpu.fetch2.amo_instructions                  0                       # Number of memory atomic instructions successfully decoded
system.cpu.fetch2.fp_instructions                   0                       # Number of floating point instructions successfully decoded
system.cpu.fetch2.int_instructions            4866059                       # Number of integer instructions successfully decoded
system.cpu.fetch2.load_instructions           4263798                       # Number of memory load instructions successfully decoded
system.cpu.fetch2.store_instructions           657319                       # Number of memory store instructions successfully decoded
system.cpu.fetch2.vec_instructions                  0                       # Number of SIMD instructions successfully decoded
system.cpu.idleCycles                          778426                       # Total number of cycles that the object has spent stopped
system.cpu.ipc                               0.746300                       # IPC: instructions per cycle
system.cpu.itb.accesses                             0                       # DTB accesses
system.cpu.itb.align_faults                         0                       # Number of TLB faults due to alignment restrictions
system.cpu.itb.domain_faults                        0                       # Number of TLB faults due to domain restrictions
system.cpu.itb.flush_entries                        0                       # Number of entries that have been flushed from TLB
system.cpu.itb.flush_tlb                            0                       # Number of times complete TLB was flushed
system.cpu.itb.flush_tlb_asid                       0                       # Number of times TLB was flushed by ASID
system.cpu.itb.flush_tlb_mva                        0                       # Number of times TLB was flushed by MVA
system.cpu.itb.flush_tlb_mva_asid                   0                       # Number of times TLB was flushed by MVA & ASID
system.cpu.itb.hits                                 0                       # DTB hits
system.cpu.itb.inst_accesses                        0                       # ITB inst accesses
system.cpu.itb.inst_hits                            0                       # ITB inst hits
system.cpu.itb.inst_misses                          0                       # ITB inst misses
system.cpu.itb.misses                               0                       # DTB misses
system.cpu.itb.perms_faults                         0                       # Number of TLB faults due to permissions restrictions
system.cpu.itb.prefetch_faults                      0                       # Number of TLB faults due to prefetch
system.cpu.itb.read_accesses                        0                       # DTB read accesses
system.cpu.itb.read_hits                            0                       # DTB read hits
system.cpu.itb.read_misses                          0                       # DTB read misses
system.cpu.itb.stage2_mmu.stage2_tlb.accesses            0                       # DTB accesses
system.cpu.itb.stage2_mmu.stage2_tlb.align_faults            0                       # Number of TLB faults due to alignment restrictions
system.cpu.itb.stage2_mmu.stage2_tlb.domain_faults            0                       # Number of TLB faults due to domain restrictions
system.cpu.itb.stage2_mmu.stage2_tlb.flush_entries            0                       # Number of entries that have been flushed from TLB
system.cpu.itb.stage2_mmu.stage2_tlb.flush_tlb            0                       # Number of times complete TLB was flushed
system.cpu.itb.stage2_mmu.stage2_tlb.flush_tlb_asid            0                       # Number of times TLB was flushed by ASID
system.cpu.itb.stage2_mmu.stage2_tlb.flush_tlb_mva            0                       # Number of times TLB was flushed by MVA
system.cpu.itb.stage2_mmu.stage2_tlb.flush_tlb_mva_asid            0                       # Number of times TLB was flushed by MVA & ASID
system.cpu.itb.stage2_mmu.stage2_tlb.hits            0                       # DTB hits
system.cpu.itb.stage2_mmu.stage2_tlb.inst_accesses            0                       # ITB inst accesses
system.cpu.itb.stage2_mmu.stage2_tlb.inst_hits            0                       # ITB inst hits
system.cpu.itb.stage2_mmu.stage2_tlb.inst_misses            0                       # ITB inst misses
system.cpu.itb.stage2_mmu.stage2_tlb.misses            0                       # DTB misses
system.cpu.itb.stage2_mmu.stage2_tlb.perms_faults            0                       # Number of TLB faults due to permissions restrictions
system.cpu.itb.stage2_mmu.stage2_tlb.prefetch_faults            0                       # Number of TLB faults due to prefetch
system.cpu.itb.stage2_mmu.stage2_tlb.read_accesses            0                       # DTB read accesses
system.cpu.itb.stage2_mmu.stage2_tlb.read_hits            0                       # DTB read hits
system.cpu.itb.stage2_mmu.stage2_tlb.read_misses            0                       # DTB read misses
system.cpu.itb.stage2_mmu.stage2_tlb.walker.walkRequestOrigin_Requested::Data            0                       # Table walker requests started/completed, data/inst
system.cpu.itb.stage2_mmu.stage2_tlb.walker.walkRequestOrigin_Requested::Inst            0                       # Table walker requests started/completed, data/inst
system.cpu.itb.stage2_mmu.stage2_tlb.walker.walkRequestOrigin_Requested::total            0                       # Table walker requests started/completed, data/inst
system.cpu.itb.stage2_mmu.stage2_tlb.walker.walkRequestOrigin_Completed::Data            0                       # Table walker requests started/completed, data/inst
system.cpu.itb.stage2_mmu.stage2_tlb.walker.walkRequestOrigin_Completed::Inst            0                       # Table walker requests started/completed, data/inst
system.cpu.itb.stage2_mmu.stage2_tlb.walker.walkRequestOrigin_Completed::total            0                       # Table walker requests started/completed, data/inst
system.cpu.itb.stage2_mmu.stage2_tlb.walker.walkRequestOrigin::total            0                       # Table walker requests started/completed, data/inst
system.cpu.itb.stage2_mmu.stage2_tlb.walker.walks            0                       # Table walker walks requested
system.cpu.itb.stage2_mmu.stage2_tlb.write_accesses            0                       # DTB write accesses
system.cpu.itb.stage2_mmu.stage2_tlb.write_hits            0                       # DTB write hits
system.cpu.itb.stage2_mmu.stage2_tlb.write_misses            0                       # DTB write misses
system.cpu.itb.walker.walkRequestOrigin_Requested::Data            0                       # Table walker requests started/completed, data/inst
system.cpu.itb.walker.walkRequestOrigin_Requested::Inst            0                       # Table walker requests started/completed, data/inst
system.cpu.itb.walker.walkRequestOrigin_Requested::total            0                       # Table walker requests started/completed, data/inst
system.cpu.itb.walker.walkRequestOrigin_Completed::Data            0                       # Table walker requests started/completed, data/inst
system.cpu.itb.walker.walkRequestOrigin_Completed::Inst            0                       # Table walker requests started/completed, data/inst
system.cpu.itb.walker.walkRequestOrigin_Completed::total            0                       # Table walker requests started/completed, data/inst
system.cpu.itb.walker.walkRequestOrigin::total            0                       # Table walker requests started/completed, data/inst
system.cpu.itb.walker.walks                         0                       # Table walker walks requested
system.cpu.itb.write_accesses                       0                       # DTB write accesses
system.cpu.itb.write_hits                           0                       # DTB write hits
system.cpu.itb.write_misses                         0                       # DTB write misses
system.cpu.numCycles                         13399443                       # number of cpu cycles simulated
system.cpu.numFetchSuspends                         0                       # Number of times Execute suspended instruction fetching
system.cpu.numWorkItemsCompleted                    0                       # number of work items this cpu completed
system.cpu.numWorkItemsStarted                      0                       # number of work items this cpu started
system.cpu.op_class_0::No_OpClass                   0      0.00%      0.00% # Class of committed instruction
system.cpu.op_class_0::IntAlu                 5232223     50.11%     50.11% # Class of committed instruction
system.cpu.op_class_0::IntMult                  28082      0.27%     50.38% # Class of committed instruction
system.cpu.op_class_0::IntDiv                       0      0.00%     50.38% # Class of committed instruction
system.cpu.op_class_0::FloatAdd                     0      0.00%     50.38% # Class of committed instruction
system.cpu.op_class_0::FloatCmp                     0      0.00%     50.38% # Class of committed instruction
system.cpu.op_class_0::FloatCvt                     0      0.00%     50.38% # Class of committed instruction
system.cpu.op_class_0::FloatMult                    0      0.00%     50.38% # Class of committed instruction
system.cpu.op_class_0::FloatMultAcc                 0      0.00%     50.38% # Class of committed instruction
system.cpu.op_class_0::FloatDiv                     0      0.00%     50.38% # Class of committed instruction
system.cpu.op_class_0::FloatMisc                    0      0.00%     50.38% # Class of committed instruction
system.cpu.op_class_0::FloatSqrt                    0      0.00%     50.38% # Class of committed instruction
system.cpu.op_class_0::SimdAdd                      0      0.00%     50.38% # Class of committed instruction
system.cpu.op_class_0::SimdAddAcc                   0      0.00%     50.38% # Class of committed instruction
system.cpu.op_class_0::SimdAlu                      0      0.00%     50.38% # Class of committed instruction
system.cpu.op_class_0::SimdCmp                      0      0.00%     50.38% # Class of committed instruction
system.cpu.op_class_0::SimdCvt                      0      0.00%     50.38% # Class of committed instruction
system.cpu.op_class_0::SimdMisc                     0      0.00%     50.38% # Class of committed instruction
system.cpu.op_class_0::SimdMult                     0      0.00%     50.38% # Class of committed instruction
system.cpu.op_class_0::SimdMultAcc                  0      0.00%     50.38% # Class of committed instruction
system.cpu.op_class_0::SimdShift                    0      0.00%     50.38% # Class of committed instruction
system.cpu.op_class_0::SimdShiftAcc                 0      0.00%     50.38% # Class of committed instruction
system.cpu.op_class_0::SimdDiv                      0      0.00%     50.38% # Class of committed instruction
system.cpu.op_class_0::SimdSqrt                     0      0.00%     50.38% # Class of committed instruction
system.cpu.op_class_0::SimdFloatAdd             39588      0.38%     50.76% # Class of committed instruction
system.cpu.op_class_0::SimdFloatAlu                 0      0.00%     50.76% # Class of committed instruction
system.cpu.op_class_0::SimdFloatCmp             31926      0.31%     51.07% # Class of committed instruction
system.cpu.op_class_0::SimdFloatCvt             24618      0.24%     51.30% # Class of committed instruction
system.cpu.op_class_0::SimdFloatDiv              9034      0.09%     51.39% # Class of committed instruction
system.cpu.op_class_0::SimdFloatMisc            72135      0.69%     52.08% # Class of committed instruction
system.cpu.op_class_0::SimdFloatMult            10285      0.10%     52.18% # Class of committed instruction
system.cpu.op_class_0::SimdFloatMultAcc         11115      0.11%     52.28% # Class of committed instruction
system.cpu.op_class_0::SimdFloatSqrt                0      0.00%     52.28% # Class of committed instruction
system.cpu.op_class_0::SimdReduceAdd                0      0.00%     52.28% # Class of committed instruction
system.cpu.op_class_0::SimdReduceAlu                0      0.00%     52.28% # Class of committed instruction
system.cpu.op_class_0::SimdReduceCmp                0      0.00%     52.28% # Class of committed instruction
system.cpu.op_class_0::SimdFloatReduceAdd            0      0.00%     52.28% # Class of committed instruction
system.cpu.op_class_0::SimdFloatReduceCmp            0      0.00%     52.28% # Class of committed instruction
system.cpu.op_class_0::SimdAes                      0      0.00%     52.28% # Class of committed instruction
system.cpu.op_class_0::SimdAesMix                   0      0.00%     52.28% # Class of committed instruction
system.cpu.op_class_0::SimdSha1Hash                 0      0.00%     52.28% # Class of committed instruction
system.cpu.op_class_0::SimdSha1Hash2                0      0.00%     52.28% # Class of committed instruction
system.cpu.op_class_0::SimdSha256Hash               0      0.00%     52.28% # Class of committed instruction
system.cpu.op_class_0::SimdSha256Hash2              0      0.00%     52.28% # Class of committed instruction
system.cpu.op_class_0::SimdShaSigma2                0      0.00%     52.28% # Class of committed instruction
system.cpu.op_class_0::SimdShaSigma3                0      0.00%     52.28% # Class of committed instruction
system.cpu.op_class_0::SimdPredAlu                  0      0.00%     52.28% # Class of committed instruction
system.cpu.op_class_0::MemRead                4079068     39.07%     91.35% # Class of committed instruction
system.cpu.op_class_0::MemWrite                903145      8.65%    100.00% # Class of committed instruction
system.cpu.op_class_0::FloatMemRead                 0      0.00%    100.00% # Class of committed instruction
system.cpu.op_class_0::FloatMemWrite                0      0.00%    100.00% # Class of committed instruction
system.cpu.op_class_0::IprAccess                    0      0.00%    100.00% # Class of committed instruction
system.cpu.op_class_0::InstPrefetch                 0      0.00%    100.00% # Class of committed instruction
system.cpu.op_class_0::total                 10441219                       # Class of committed instruction
system.cpu.tickCycles                        12621017                       # Number of cycles that the object actually ticked
system.cpu.workload.numSyscalls                    32                       # Number of system calls
system.membus.snoop_filter.hit_multi_requests            0                       # Number of requests hitting in the snoop filter with multiple (>1) holders of the requested data.
system.membus.snoop_filter.hit_multi_snoops            0                       # Number of snoops hitting in the snoop filter with multiple (>1) holders of the requested data.
system.membus.snoop_filter.hit_single_requests            0                       # Number of requests hitting in the snoop filter with a single holder of the requested data.
system.membus.snoop_filter.hit_single_snoops            0                       # Number of snoops hitting in the snoop filter with a single holder of the requested data.
system.membus.snoop_filter.tot_requests          3023                       # Total number of requests made to the snoop filter.
system.membus.snoop_filter.tot_snoops               0                       # Total number of snoops made to the snoop filter.
system.tol2bus.snoop_filter.hit_multi_requests          364                       # Number of requests hitting in the snoop filter with multiple (>1) holders of the requested data.
system.tol2bus.snoop_filter.hit_multi_snoops            0                       # Number of snoops hitting in the snoop filter with multiple (>1) holders of the requested data.
system.tol2bus.snoop_filter.hit_single_requests        11840                       # Number of requests hitting in the snoop filter with a single holder of the requested data.
system.tol2bus.snoop_filter.hit_single_snoops            0                       # Number of snoops hitting in the snoop filter with a single holder of the requested data.
system.tol2bus.snoop_filter.tot_requests        24446                       # Total number of requests made to the snoop filter.
system.tol2bus.snoop_filter.tot_snoops              0                       # Total number of snoops made to the snoop filter.
system.membus.pwrStateResidencyTicks::UNDEFINED   6699721500                       # Cumulative time (in ticks) in various power states
system.membus.trans_dist::ReadResp               1339                       # Transaction distribution
system.membus.trans_dist::ReadExReq              1684                       # Transaction distribution
system.membus.trans_dist::ReadExResp             1684                       # Transaction distribution
system.membus.trans_dist::ReadSharedReq          1339                       # Transaction distribution
system.membus.pkt_count_system.l2.mem_side::system.mem_ctrls.port         6046                       # Packet count per connected master and slave (bytes)
system.membus.pkt_count::total                   6046                       # Packet count per connected master and slave (bytes)
system.membus.pkt_size_system.l2.mem_side::system.mem_ctrls.port       386944                       # Cumulative packet size per connected master and slave (bytes)
system.membus.pkt_size::total                  386944                       # Cumulative packet size per connected master and slave (bytes)
system.membus.snoops                                0                       # Total snoops (count)
system.membus.snoopTraffic                          0                       # Total snoop traffic (bytes)
system.membus.snoop_fanout::samples              3023                       # Request fanout histogram
system.membus.snoop_fanout::mean                    0                       # Request fanout histogram
system.membus.snoop_fanout::stdev                   0                       # Request fanout histogram
system.membus.snoop_fanout::underflows              0      0.00%      0.00% # Request fanout histogram
system.membus.snoop_fanout::0                    3023    100.00%    100.00% # Request fanout histogram
system.membus.snoop_fanout::1                       0      0.00%    100.00% # Request fanout histogram
system.membus.snoop_fanout::overflows               0      0.00%    100.00% # Request fanout histogram
system.membus.snoop_fanout::min_value               0                       # Request fanout histogram
system.membus.snoop_fanout::max_value               0                       # Request fanout histogram
system.membus.snoop_fanout::total                3023                       # Request fanout histogram
system.membus.respLayer1.occupancy           28261250                       # Layer occupancy (ticks)
system.membus.respLayer1.utilization              0.4                       # Layer utilization (%)
system.membus.reqLayer0.occupancy             3656500                       # Layer occupancy (ticks)
system.membus.reqLayer0.utilization               0.1                       # Layer utilization (%)
system.tol2bus.pwrStateResidencyTicks::UNDEFINED   6699721500                       # Cumulative time (in ticks) in various power states
system.tol2bus.trans_dist::ReadResp              7376                       # Transaction distribution
system.tol2bus.trans_dist::WritebackDirty         7438                       # Transaction distribution
system.tol2bus.trans_dist::WritebackClean         3714                       # Transaction distribution
system.tol2bus.trans_dist::CleanEvict             687                       # Transaction distribution
system.tol2bus.trans_dist::ReadExReq             5231                       # Transaction distribution
system.tol2bus.trans_dist::ReadExResp            5231                       # Transaction distribution
system.tol2bus.trans_dist::ReadCleanReq          3970                       # Transaction distribution
system.tol2bus.trans_dist::ReadSharedReq         3406                       # Transaction distribution
system.tol2bus.pkt_count_system.cpu.icache.mem_side::system.l2.cpu_side        11654                       # Packet count per connected master and slave (bytes)
system.tol2bus.pkt_count_system.cpu.dcache.mem_side::system.l2.cpu_side        25399                       # Packet count per connected master and slave (bytes)
system.tol2bus.pkt_count::total                 37053                       # Packet count per connected master and slave (bytes)
system.tol2bus.pkt_size_system.cpu.icache.mem_side::system.l2.cpu_side       983552                       # Cumulative packet size per connected master and slave (bytes)
system.tol2bus.pkt_size_system.cpu.dcache.mem_side::system.l2.cpu_side      2057600                       # Cumulative packet size per connected master and slave (bytes)
system.tol2bus.pkt_size::total                3041152                       # Cumulative packet size per connected master and slave (bytes)
system.tol2bus.snoops                               0                       # Total snoops (count)
system.tol2bus.snoopTraffic                         0                       # Total snoop traffic (bytes)
system.tol2bus.snoop_fanout::samples            12607                       # Request fanout histogram
system.tol2bus.snoop_fanout::mean            0.028952                       # Request fanout histogram
system.tol2bus.snoop_fanout::stdev           0.167679                       # Request fanout histogram
system.tol2bus.snoop_fanout::underflows             0      0.00%      0.00% # Request fanout histogram
system.tol2bus.snoop_fanout::0                  12242     97.10%     97.10% # Request fanout histogram
system.tol2bus.snoop_fanout::1                    365      2.90%    100.00% # Request fanout histogram
system.tol2bus.snoop_fanout::2                      0      0.00%    100.00% # Request fanout histogram
system.tol2bus.snoop_fanout::overflows              0      0.00%    100.00% # Request fanout histogram
system.tol2bus.snoop_fanout::min_value              0                       # Request fanout histogram
system.tol2bus.snoop_fanout::max_value              1                       # Request fanout histogram
system.tol2bus.snoop_fanout::total              12607                       # Request fanout histogram
system.tol2bus.reqLayer0.occupancy           34527000                       # Layer occupancy (ticks)
system.tol2bus.reqLayer0.utilization              0.5                       # Layer utilization (%)
system.tol2bus.respLayer1.occupancy          21599985                       # Layer occupancy (ticks)
system.tol2bus.respLayer1.utilization             0.3                       # Layer utilization (%)
system.tol2bus.respLayer0.occupancy           9925998                       # Layer occupancy (ticks)
system.tol2bus.respLayer0.utilization             0.1                       # Layer utilization (%)
system.voltage_domain.voltage                       1                       # Voltage in Volts
system.clk_domain.clock                          1000                       # Clock period in ticks
system.l2.pwrStateResidencyTicks::UNDEFINED   6699721500                       # Cumulative time (in ticks) in various power states
system.l2.demand_hits::.cpu.inst                 2976                       # number of demand (read+write) hits
system.l2.demand_hits::.cpu.data                 6591                       # number of demand (read+write) hits
system.l2.demand_hits::total                     9567                       # number of demand (read+write) hits
system.l2.overall_hits::.cpu.inst                2976                       # number of overall hits
system.l2.overall_hits::.cpu.data                6591                       # number of overall hits
system.l2.overall_hits::total                    9567                       # number of overall hits
system.l2.demand_misses::.cpu.inst                994                       # number of demand (read+write) misses
system.l2.demand_misses::.cpu.data               2046                       # number of demand (read+write) misses
system.l2.demand_misses::total                   3040                       # number of demand (read+write) misses
system.l2.overall_misses::.cpu.inst               994                       # number of overall misses
system.l2.overall_misses::.cpu.data              2046                       # number of overall misses
system.l2.overall_misses::total                  3040                       # number of overall misses
system.l2.demand_miss_latency::.cpu.inst     81713000                       # number of demand (read+write) miss cycles
system.l2.demand_miss_latency::.cpu.data    172245500                       # number of demand (read+write) miss cycles
system.l2.demand_miss_latency::total        253958500                       # number of demand (read+write) miss cycles
system.l2.overall_miss_latency::.cpu.inst     81713000                       # number of overall miss cycles
system.l2.overall_miss_latency::.cpu.data    172245500                       # number of overall miss cycles
system.l2.overall_miss_latency::total       253958500                       # number of overall miss cycles
system.l2.demand_accesses::.cpu.inst             3970                       # number of demand (read+write) accesses
system.l2.demand_accesses::.cpu.data             8637                       # number of demand (read+write) accesses
system.l2.demand_accesses::total                12607                       # number of demand (read+write) accesses
system.l2.overall_accesses::.cpu.inst            3970                       # number of overall (read+write) accesses
system.l2.overall_accesses::.cpu.data            8637                       # number of overall (read+write) accesses
system.l2.overall_accesses::total               12607                       # number of overall (read+write) accesses
system.l2.demand_miss_rate::.cpu.inst        0.250378                       # miss rate for demand accesses
system.l2.demand_miss_rate::.cpu.data        0.236888                       # miss rate for demand accesses
system.l2.demand_miss_rate::total            0.241136                       # miss rate for demand accesses
system.l2.overall_miss_rate::.cpu.inst       0.250378                       # miss rate for overall accesses
system.l2.overall_miss_rate::.cpu.data       0.236888                       # miss rate for overall accesses
system.l2.overall_miss_rate::total           0.241136                       # miss rate for overall accesses
system.l2.demand_avg_miss_latency::.cpu.inst 82206.237425                       # average overall miss latency
system.l2.demand_avg_miss_latency::.cpu.data 84186.461388                       # average overall miss latency
system.l2.demand_avg_miss_latency::total 83538.980263                       # average overall miss latency
system.l2.overall_avg_miss_latency::.cpu.inst 82206.237425                       # average overall miss latency
system.l2.overall_avg_miss_latency::.cpu.data 84186.461388                       # average overall miss latency
system.l2.overall_avg_miss_latency::total 83538.980263                       # average overall miss latency
system.l2.blocked_cycles::no_mshrs                  0                       # number of cycles access was blocked
system.l2.blocked_cycles::no_targets                0                       # number of cycles access was blocked
system.l2.blocked::no_mshrs                         0                       # number of cycles access was blocked
system.l2.blocked::no_targets                       0                       # number of cycles access was blocked
system.l2.avg_blocked_cycles::no_mshrs            nan                       # average number of cycles each access was blocked
system.l2.avg_blocked_cycles::no_targets          nan                       # average number of cycles each access was blocked
system.l2.demand_mshr_hits::.cpu.inst               2                       # number of demand (read+write) MSHR hits
system.l2.demand_mshr_hits::.cpu.data              15                       # number of demand (read+write) MSHR hits
system.l2.demand_mshr_hits::total                  17                       # number of demand (read+write) MSHR hits
system.l2.overall_mshr_hits::.cpu.inst              2                       # number of overall MSHR hits
system.l2.overall_mshr_hits::.cpu.data             15                       # number of overall MSHR hits
system.l2.overall_mshr_hits::total                 17                       # number of overall MSHR hits
system.l2.demand_mshr_misses::.cpu.inst           992                       # number of demand (read+write) MSHR misses
system.l2.demand_mshr_misses::.cpu.data          2031                       # number of demand (read+write) MSHR misses
system.l2.demand_mshr_misses::total              3023                       # number of demand (read+write) MSHR misses
system.l2.overall_mshr_misses::.cpu.inst          992                       # number of overall MSHR misses
system.l2.overall_mshr_misses::.cpu.data         2031                       # number of overall MSHR misses
system.l2.overall_mshr_misses::total             3023                       # number of overall MSHR misses
system.l2.demand_mshr_miss_latency::.cpu.inst     71440000                       # number of demand (read+write) MSHR miss cycles
system.l2.demand_mshr_miss_latency::.cpu.data    150825000                       # number of demand (read+write) MSHR miss cycles
system.l2.demand_mshr_miss_latency::total    222265000                       # number of demand (read+write) MSHR miss cycles
system.l2.overall_mshr_miss_latency::.cpu.inst     71440000                       # number of overall MSHR miss cycles
system.l2.overall_mshr_miss_latency::.cpu.data    150825000                       # number of overall MSHR miss cycles
system.l2.overall_mshr_miss_latency::total    222265000                       # number of overall MSHR miss cycles
system.l2.demand_mshr_miss_rate::.cpu.inst     0.249874                       # mshr miss rate for demand accesses
system.l2.demand_mshr_miss_rate::.cpu.data     0.235151                       # mshr miss rate for demand accesses
system.l2.demand_mshr_miss_rate::total       0.239787                       # mshr miss rate for demand accesses
system.l2.overall_mshr_miss_rate::.cpu.inst     0.249874                       # mshr miss rate for overall accesses
system.l2.overall_mshr_miss_rate::.cpu.data     0.235151                       # mshr miss rate for overall accesses
system.l2.overall_mshr_miss_rate::total      0.239787                       # mshr miss rate for overall accesses
system.l2.demand_avg_mshr_miss_latency::.cpu.inst 72016.129032                       # average overall mshr miss latency
system.l2.demand_avg_mshr_miss_latency::.cpu.data 74261.447563                       # average overall mshr miss latency
system.l2.demand_avg_mshr_miss_latency::total 73524.644393                       # average overall mshr miss latency
system.l2.overall_avg_mshr_miss_latency::.cpu.inst 72016.129032                       # average overall mshr miss latency
system.l2.overall_avg_mshr_miss_latency::.cpu.data 74261.447563                       # average overall mshr miss latency
system.l2.overall_avg_mshr_miss_latency::total 73524.644393                       # average overall mshr miss latency
system.l2.replacements                              0                       # number of replacements
system.l2.WritebackDirty_hits::.writebacks         7438                       # number of WritebackDirty hits
system.l2.WritebackDirty_hits::total             7438                       # number of WritebackDirty hits
system.l2.WritebackDirty_accesses::.writebacks         7438                       # number of WritebackDirty accesses(hits+misses)
system.l2.WritebackDirty_accesses::total         7438                       # number of WritebackDirty accesses(hits+misses)
system.l2.WritebackClean_hits::.writebacks         3527                       # number of WritebackClean hits
system.l2.WritebackClean_hits::total             3527                       # number of WritebackClean hits
system.l2.WritebackClean_accesses::.writebacks         3527                       # number of WritebackClean accesses(hits+misses)
system.l2.WritebackClean_accesses::total         3527                       # number of WritebackClean accesses(hits+misses)
system.l2.ReadExReq_hits::.cpu.data              3547                       # number of ReadExReq hits
system.l2.ReadExReq_hits::total                  3547                       # number of ReadExReq hits
system.l2.ReadExReq_misses::.cpu.data            1684                       # number of ReadExReq misses
system.l2.ReadExReq_misses::total                1684                       # number of ReadExReq misses
system.l2.ReadExReq_miss_latency::.cpu.data    141203500                       # number of ReadExReq miss cycles
system.l2.ReadExReq_miss_latency::total     141203500                       # number of ReadExReq miss cycles
system.l2.ReadExReq_accesses::.cpu.data          5231                       # number of ReadExReq accesses(hits+misses)
system.l2.ReadExReq_accesses::total              5231                       # number of ReadExReq accesses(hits+misses)
system.l2.ReadExReq_miss_rate::.cpu.data     0.321927                       # miss rate for ReadExReq accesses
system.l2.ReadExReq_miss_rate::total         0.321927                       # miss rate for ReadExReq accesses
system.l2.ReadExReq_avg_miss_latency::.cpu.data 83850.059382                       # average ReadExReq miss latency
system.l2.ReadExReq_avg_miss_latency::total 83850.059382                       # average ReadExReq miss latency
system.l2.ReadExReq_mshr_misses::.cpu.data         1684                       # number of ReadExReq MSHR misses
system.l2.ReadExReq_mshr_misses::total           1684                       # number of ReadExReq MSHR misses
system.l2.ReadExReq_mshr_miss_latency::.cpu.data    124363500                       # number of ReadExReq MSHR miss cycles
system.l2.ReadExReq_mshr_miss_latency::total    124363500                       # number of ReadExReq MSHR miss cycles
system.l2.ReadExReq_mshr_miss_rate::.cpu.data     0.321927                       # mshr miss rate for ReadExReq accesses
system.l2.ReadExReq_mshr_miss_rate::total     0.321927                       # mshr miss rate for ReadExReq accesses
system.l2.ReadExReq_avg_mshr_miss_latency::.cpu.data 73850.059382                       # average ReadExReq mshr miss latency
system.l2.ReadExReq_avg_mshr_miss_latency::total 73850.059382                       # average ReadExReq mshr miss latency
system.l2.ReadCleanReq_hits::.cpu.inst           2976                       # number of ReadCleanReq hits
system.l2.ReadCleanReq_hits::total               2976                       # number of ReadCleanReq hits
system.l2.ReadCleanReq_misses::.cpu.inst          994                       # number of ReadCleanReq misses
system.l2.ReadCleanReq_misses::total              994                       # number of ReadCleanReq misses
system.l2.ReadCleanReq_miss_latency::.cpu.inst     81713000                       # number of ReadCleanReq miss cycles
system.l2.ReadCleanReq_miss_latency::total     81713000                       # number of ReadCleanReq miss cycles
system.l2.ReadCleanReq_accesses::.cpu.inst         3970                       # number of ReadCleanReq accesses(hits+misses)
system.l2.ReadCleanReq_accesses::total           3970                       # number of ReadCleanReq accesses(hits+misses)
system.l2.ReadCleanReq_miss_rate::.cpu.inst     0.250378                       # miss rate for ReadCleanReq accesses
system.l2.ReadCleanReq_miss_rate::total      0.250378                       # miss rate for ReadCleanReq accesses
system.l2.ReadCleanReq_avg_miss_latency::.cpu.inst 82206.237425                       # average ReadCleanReq miss latency
system.l2.ReadCleanReq_avg_miss_latency::total 82206.237425                       # average ReadCleanReq miss latency
system.l2.ReadCleanReq_mshr_hits::.cpu.inst            2                       # number of ReadCleanReq MSHR hits
system.l2.ReadCleanReq_mshr_hits::total             2                       # number of ReadCleanReq MSHR hits
system.l2.ReadCleanReq_mshr_misses::.cpu.inst          992                       # number of ReadCleanReq MSHR misses
system.l2.ReadCleanReq_mshr_misses::total          992                       # number of ReadCleanReq MSHR misses
system.l2.ReadCleanReq_mshr_miss_latency::.cpu.inst     71440000                       # number of ReadCleanReq MSHR miss cycles
system.l2.ReadCleanReq_mshr_miss_latency::total     71440000                       # number of ReadCleanReq MSHR miss cycles
system.l2.ReadCleanReq_mshr_miss_rate::.cpu.inst     0.249874                       # mshr miss rate for ReadCleanReq accesses
system.l2.ReadCleanReq_mshr_miss_rate::total     0.249874                       # mshr miss rate for ReadCleanReq accesses
system.l2.ReadCleanReq_avg_mshr_miss_latency::.cpu.inst 72016.129032                       # average ReadCleanReq mshr miss latency
system.l2.ReadCleanReq_avg_mshr_miss_latency::total 72016.129032                       # average ReadCleanReq mshr miss latency
system.l2.ReadSharedReq_hits::.cpu.data          3044                       # number of ReadSharedReq hits
system.l2.ReadSharedReq_hits::total              3044                       # number of ReadSharedReq hits
system.l2.ReadSharedReq_misses::.cpu.data          362                       # number of ReadSharedReq misses
system.l2.ReadSharedReq_misses::total             362                       # number of ReadSharedReq misses
system.l2.ReadSharedReq_miss_latency::.cpu.data     31042000                       # number of ReadSharedReq miss cycles
system.l2.ReadSharedReq_miss_latency::total     31042000                       # number of ReadSharedReq miss cycles
system.l2.ReadSharedReq_accesses::.cpu.data         3406                       # number of ReadSharedReq accesses(hits+misses)
system.l2.ReadSharedReq_accesses::total          3406                       # number of ReadSharedReq accesses(hits+misses)
system.l2.ReadSharedReq_miss_rate::.cpu.data     0.106283                       # miss rate for ReadSharedReq accesses
system.l2.ReadSharedReq_miss_rate::total     0.106283                       # miss rate for ReadSharedReq accesses
system.l2.ReadSharedReq_avg_miss_latency::.cpu.data 85751.381215                       # average ReadSharedReq miss latency
system.l2.ReadSharedReq_avg_miss_latency::total 85751.381215                       # average ReadSharedReq miss latency
system.l2.ReadSharedReq_mshr_hits::.cpu.data           15                       # number of ReadSharedReq MSHR hits
system.l2.ReadSharedReq_mshr_hits::total           15                       # number of ReadSharedReq MSHR hits
system.l2.ReadSharedReq_mshr_misses::.cpu.data          347                       # number of ReadSharedReq MSHR misses
system.l2.ReadSharedReq_mshr_misses::total          347                       # number of ReadSharedReq MSHR misses
system.l2.ReadSharedReq_mshr_miss_latency::.cpu.data     26461500                       # number of ReadSharedReq MSHR miss cycles
system.l2.ReadSharedReq_mshr_miss_latency::total     26461500                       # number of ReadSharedReq MSHR miss cycles
system.l2.ReadSharedReq_mshr_miss_rate::.cpu.data     0.101879                       # mshr miss rate for ReadSharedReq accesses
system.l2.ReadSharedReq_mshr_miss_rate::total     0.101879                       # mshr miss rate for ReadSharedReq accesses
system.l2.ReadSharedReq_avg_mshr_miss_latency::.cpu.data 76257.925072                       # average ReadSharedReq mshr miss latency
system.l2.ReadSharedReq_avg_mshr_miss_latency::total 76257.925072                       # average ReadSharedReq mshr miss latency
system.l2.tags.pwrStateResidencyTicks::UNDEFINED   6699721500                       # Cumulative time (in ticks) in various power states
system.l2.tags.tagsinuse                  2322.402752                       # Cycle average of tags in use
system.l2.tags.total_refs                       24065                       # Total number of references to valid blocks.
system.l2.tags.sampled_refs                      3023                       # Sample count of references to valid blocks.
system.l2.tags.avg_refs                      7.960635                       # Average number of references to valid blocks.
system.l2.tags.warmup_cycle                     82000                       # Cycle when the warmup percentage was hit.
system.l2.tags.occ_blocks::.cpu.inst       954.188232                       # Average occupied blocks per requestor
system.l2.tags.occ_blocks::.cpu.data      1368.214520                       # Average occupied blocks per requestor
system.l2.tags.occ_percent::.cpu.inst        0.058239                       # Average percentage of cache occupancy
system.l2.tags.occ_percent::.cpu.data        0.083509                       # Average percentage of cache occupancy
system.l2.tags.occ_percent::total            0.141748                       # Average percentage of cache occupancy
system.l2.tags.occ_task_id_blocks::1024          3023                       # Occupied blocks per task id
system.l2.tags.age_task_id_blocks_1024::2          261                       # Occupied blocks per task id
system.l2.tags.age_task_id_blocks_1024::3         2762                       # Occupied blocks per task id
system.l2.tags.occ_task_id_percent::1024     0.184509                       # Percentage of cache occupancy per task id
system.l2.tags.tag_accesses                    195679                       # Number of tag accesses
system.l2.tags.data_accesses                   195679                       # Number of data accesses
system.cpu_voltage_domain.voltage                   1                       # Voltage in Volts
system.mem_ctrls.pwrStateResidencyTicks::UNDEFINED   6699721500                       # Cumulative time (in ticks) in various power states
system.mem_ctrls.bytes_read::.cpu.inst         126976                       # Number of bytes read from this memory
system.mem_ctrls.bytes_read::.cpu.data         259968                       # Number of bytes read from this memory
system.mem_ctrls.bytes_read::total             386944                       # Number of bytes read from this memory
system.mem_ctrls.bytes_inst_read::.cpu.inst       126976                       # Number of instructions bytes read from this memory
system.mem_ctrls.bytes_inst_read::total        126976                       # Number of instructions bytes read from this memory
system.mem_ctrls.num_reads::.cpu.inst             992                       # Number of read requests responded to by this memory
system.mem_ctrls.num_reads::.cpu.data            2031                       # Number of read requests responded to by this memory
system.mem_ctrls.num_reads::total                3023                       # Number of read requests responded to by this memory
system.mem_ctrls.bw_read::.cpu.inst          18952430                       # Total read bandwidth from this memory (bytes/s)
system.mem_ctrls.bw_read::.cpu.data          38802807                       # Total read bandwidth from this memory (bytes/s)
system.mem_ctrls.bw_read::total              57755237                       # Total read bandwidth from this memory (bytes/s)
system.mem_ctrls.bw_inst_read::.cpu.inst     18952430                       # Instruction read bandwidth from this memory (bytes/s)
system.mem_ctrls.bw_inst_read::total         18952430                       # Instruction read bandwidth from this memory (bytes/s)
system.mem_ctrls.bw_total::.cpu.inst         18952430                       # Total bandwidth to/from this memory (bytes/s)
system.mem_ctrls.bw_total::.cpu.data         38802807                       # Total bandwidth to/from this memory (bytes/s)
system.mem_ctrls.bw_total::total             57755237                       # Total bandwidth to/from this memory (bytes/s)
system.mem_ctrls.avgPriority_.cpu.inst::samples      1984.00                       # Average QoS priority value for accepted requests
system.mem_ctrls.avgPriority_.cpu.data::samples      4062.00                       # Average QoS priority value for accepted requests
system.mem_ctrls.priorityMinLatency      0.000000018750                       # per QoS priority minimum request to response latency (s)
system.mem_ctrls.priorityMaxLatency      0.000000583500                       # per QoS priority maximum request to response latency (s)
system.mem_ctrls.numReadWriteTurnArounds            0                       # Number of turnarounds from READ to WRITE
system.mem_ctrls.numWriteReadTurnArounds            0                       # Number of turnarounds from WRITE to READ
system.mem_ctrls.numStayReadState               10785                       # Number of times bus staying in READ state
system.mem_ctrls.numStayWriteState                  0                       # Number of times bus staying in WRITE state
system.mem_ctrls.readReqs                        3023                       # Number of read requests accepted
system.mem_ctrls.writeReqs                          0                       # Number of write requests accepted
system.mem_ctrls.readBursts                      6046                       # Number of DRAM read bursts, including those serviced by the write queue
system.mem_ctrls.writeBursts                        0                       # Number of DRAM write bursts, including those merged in the write queue
system.mem_ctrls.servicedByWrQ                      0                       # Number of DRAM read bursts serviced by the write queue
system.mem_ctrls.mergedWrBursts                     0                       # Number of DRAM write bursts merged with an existing one
system.mem_ctrls.neitherReadNorWriteReqs            0                       # Number of requests that are neither read nor write
system.mem_ctrls.perBankRdBursts::0               404                       # Per bank write bursts
system.mem_ctrls.perBankRdBursts::1               554                       # Per bank write bursts
system.mem_ctrls.perBankRdBursts::2               430                       # Per bank write bursts
system.mem_ctrls.perBankRdBursts::3               260                       # Per bank write bursts
system.mem_ctrls.perBankRdBursts::4               356                       # Per bank write bursts
system.mem_ctrls.perBankRdBursts::5               294                       # Per bank write bursts
system.mem_ctrls.perBankRdBursts::6               272                       # Per bank write bursts
system.mem_ctrls.perBankRdBursts::7               392                       # Per bank write bursts
system.mem_ctrls.perBankRdBursts::8               300                       # Per bank write bursts
system.mem_ctrls.perBankRdBursts::9               504                       # Per bank write bursts
system.mem_ctrls.perBankRdBursts::10              444                       # Per bank write bursts
system.mem_ctrls.perBankRdBursts::11              464                       # Per bank write bursts
system.mem_ctrls.perBankRdBursts::12              320                       # Per bank write bursts
system.mem_ctrls.perBankRdBursts::13              246                       # Per bank write bursts
system.mem_ctrls.perBankRdBursts::14              364                       # Per bank write bursts
system.mem_ctrls.perBankRdBursts::15              442                       # Per bank write bursts
system.mem_ctrls.perBankWrBursts::0                 0                       # Per bank write bursts
system.mem_ctrls.perBankWrBursts::1                 0                       # Per bank write bursts
system.mem_ctrls.perBankWrBursts::2                 0                       # Per bank write bursts
system.mem_ctrls.perBankWrBursts::3                 0                       # Per bank write bursts
system.mem_ctrls.perBankWrBursts::4                 0                       # Per bank write bursts
system.mem_ctrls.perBankWrBursts::5                 0                       # Per bank write bursts
system.mem_ctrls.perBankWrBursts::6                 0                       # Per bank write bursts
system.mem_ctrls.perBankWrBursts::7                 0                       # Per bank write bursts
system.mem_ctrls.perBankWrBursts::8                 0                       # Per bank write bursts
system.mem_ctrls.perBankWrBursts::9                 0                       # Per bank write bursts
system.mem_ctrls.perBankWrBursts::10                0                       # Per bank write bursts
system.mem_ctrls.perBankWrBursts::11                0                       # Per bank write bursts
system.mem_ctrls.perBankWrBursts::12                0                       # Per bank write bursts
system.mem_ctrls.perBankWrBursts::13                0                       # Per bank write bursts
system.mem_ctrls.perBankWrBursts::14                0                       # Per bank write bursts
system.mem_ctrls.perBankWrBursts::15                0                       # Per bank write bursts
system.mem_ctrls.avgRdQLen                       2.01                       # Average read queue length when enqueuing
system.mem_ctrls.avgWrQLen                       0.00                       # Average write queue length when enqueuing
system.mem_ctrls.totQLat                     67783000                       # Total ticks spent queuing
system.mem_ctrls.totBusLat                   30230000                       # Total ticks spent in databus transfers
system.mem_ctrls.totMemAccLat               181145500                       # Total ticks spent from burst creation until serviced by the DRAM
system.mem_ctrls.avgQLat                     11211.21                       # Average queueing delay per DRAM burst
system.mem_ctrls.avgBusLat                    5000.00                       # Average bus latency per DRAM burst
system.mem_ctrls.avgMemAccLat                29961.21                       # Average memory access latency per DRAM burst
system.mem_ctrls.numRdRetry                         0                       # Number of times read queue was full causing retry
system.mem_ctrls.numWrRetry                         0                       # Number of times write queue was full causing retry
system.mem_ctrls.readRowHits                     5025                       # Number of row buffer hits during reads
system.mem_ctrls.writeRowHits                       0                       # Number of row buffer hits during writes
system.mem_ctrls.readRowHitRate                 83.11                       # Row buffer hit rate for reads
system.mem_ctrls.writeRowHitRate                  nan                       # Row buffer hit rate for writes
system.mem_ctrls.readPktSize::0                     0                       # Read request sizes (log2)
system.mem_ctrls.readPktSize::1                     0                       # Read request sizes (log2)
system.mem_ctrls.readPktSize::2                     0                       # Read request sizes (log2)
system.mem_ctrls.readPktSize::3                     0                       # Read request sizes (log2)
system.mem_ctrls.readPktSize::4                     0                       # Read request sizes (log2)
system.mem_ctrls.readPktSize::5                     0                       # Read request sizes (log2)
system.mem_ctrls.readPktSize::6                  6046                       # Read request sizes (log2)
system.mem_ctrls.writePktSize::0                    0                       # Write request sizes (log2)
system.mem_ctrls.writePktSize::1                    0                       # Write request sizes (log2)
system.mem_ctrls.writePktSize::2                    0                       # Write request sizes (log2)
system.mem_ctrls.writePktSize::3                    0                       # Write request sizes (log2)
system.mem_ctrls.writePktSize::4                    0                       # Write request sizes (log2)
system.mem_ctrls.writePktSize::5                    0                       # Write request sizes (log2)
system.mem_ctrls.writePktSize::6                    0                       # Write request sizes (log2)
system.mem_ctrls.rdQLenPdf::0                    2845                       # What read queue length does an incoming req see
system.mem_ctrls.rdQLenPdf::1                    2863                       # What read queue length does an incoming req see
system.mem_ctrls.rdQLenPdf::2                     173                       # What read queue length does an incoming req see
system.mem_ctrls.rdQLenPdf::3                     156                       # What read queue length does an incoming req see
system.mem_ctrls.rdQLenPdf::4                       5                       # What read queue length does an incoming req see
system.mem_ctrls.rdQLenPdf::5                       4                       # What read queue length does an incoming req see
system.mem_ctrls.rdQLenPdf::6                       0                       # What read queue length does an incoming req see
system.mem_ctrls.rdQLenPdf::7                       0                       # What read queue length does an incoming req see
system.mem_ctrls.rdQLenPdf::8                       0                       # What read queue length does an incoming req see
system.mem_ctrls.rdQLenPdf::9                       0                       # What read queue length does an incoming req see
system.mem_ctrls.rdQLenPdf::10                      0                       # What read queue length does an incoming req see
system.mem_ctrls.rdQLenPdf::11                      0                       # What read queue length does an incoming req see
system.mem_ctrls.rdQLenPdf::12                      0                       # What read queue length does an incoming req see
system.mem_ctrls.rdQLenPdf::13                      0                       # What read queue length does an incoming req see
system.mem_ctrls.rdQLenPdf::14                      0                       # What read queue length does an incoming req see
system.mem_ctrls.rdQLenPdf::15                      0                       # What read queue length does an incoming req see
system.mem_ctrls.rdQLenPdf::16                      0                       # What read queue length does an incoming req see
system.mem_ctrls.rdQLenPdf::17                      0                       # What read queue length does an incoming req see
system.mem_ctrls.rdQLenPdf::18                      0                       # What read queue length does an incoming req see
system.mem_ctrls.rdQLenPdf::19                      0                       # What read queue length does an incoming req see
system.mem_ctrls.rdQLenPdf::20                      0                       # What read queue length does an incoming req see
system.mem_ctrls.rdQLenPdf::21                      0                       # What read queue length does an incoming req see
system.mem_ctrls.rdQLenPdf::22                      0                       # What read queue length does an incoming req see
system.mem_ctrls.rdQLenPdf::23                      0                       # What read queue length does an incoming req see
system.mem_ctrls.rdQLenPdf::24                      0                       # What read queue length does an incoming req see
system.mem_ctrls.rdQLenPdf::25                      0                       # What read queue length does an incoming req see
system.mem_ctrls.rdQLenPdf::26                      0                       # What read queue length does an incoming req see
system.mem_ctrls.rdQLenPdf::27                      0                       # What read queue length does an incoming req see
system.mem_ctrls.rdQLenPdf::28                      0                       # What read queue length does an incoming req see
system.mem_ctrls.rdQLenPdf::29                      0                       # What read queue length does an incoming req see
system.mem_ctrls.rdQLenPdf::30                      0                       # What read queue length does an incoming req see
system.mem_ctrls.rdQLenPdf::31                      0                       # What read queue length does an incoming req see
system.mem_ctrls.wrQLenPdf::0                       0                       # What write queue length does an incoming req see
system.mem_ctrls.wrQLenPdf::1                       0                       # What write queue length does an incoming req see
system.mem_ctrls.wrQLenPdf::2                       0                       # What write queue length does an incoming req see
system.mem_ctrls.wrQLenPdf::3                       0                       # What write queue length does an incoming req see
system.mem_ctrls.wrQLenPdf::4                       0                       # What write queue length does an incoming req see
system.mem_ctrls.wrQLenPdf::5                       0                       # What write queue length does an incoming req see
system.mem_ctrls.wrQLenPdf::6                       0                       # What write queue length does an incoming req see
system.mem_ctrls.wrQLenPdf::7                       0                       # What write queue length does an incoming req see
system.mem_ctrls.wrQLenPdf::8                       0                       # What write queue length does an incoming req see
system.mem_ctrls.wrQLenPdf::9                       0                       # What write queue length does an incoming req see
system.mem_ctrls.wrQLenPdf::10                      0                       # What write queue length does an incoming req see
system.mem_ctrls.wrQLenPdf::11                      0                       # What write queue length does an incoming req see
system.mem_ctrls.wrQLenPdf::12                      0                       # What write queue length does an incoming req see
system.mem_ctrls.wrQLenPdf::13                      0                       # What write queue length does an incoming req see
system.mem_ctrls.wrQLenPdf::14                      0                       # What write queue length does an incoming req see
system.mem_ctrls.wrQLenPdf::15                      0                       # What write queue length does an incoming req see
system.mem_ctrls.wrQLenPdf::16                      0                       # What write queue length does an incoming req see
system.mem_ctrls.wrQLenPdf::17                      0                       # What write queue length does an incoming req see
system.mem_ctrls.wrQLenPdf::18                      0                       # What write queue length does an incoming req see
system.mem_ctrls.wrQLenPdf::19                      0                       # What write queue length does an incoming req see
system.mem_ctrls.wrQLenPdf::20                      0                       # What write queue length does an incoming req see
system.mem_ctrls.wrQLenPdf::21                      0                       # What write queue length does an incoming req see
system.mem_ctrls.wrQLenPdf::22                      0                       # What write queue length does an incoming req see
system.mem_ctrls.wrQLenPdf::23                      0                       # What write queue length does an incoming req see
system.mem_ctrls.wrQLenPdf::24                      0                       # What write queue length does an incoming req see
system.mem_ctrls.wrQLenPdf::25                      0                       # What write queue length does an incoming req see
system.mem_ctrls.wrQLenPdf::26                      0                       # What write queue length does an incoming req see
system.mem_ctrls.wrQLenPdf::27                      0                       # What write queue length does an incoming req see
system.mem_ctrls.wrQLenPdf::28                      0                       # What write queue length does an incoming req see
system.mem_ctrls.wrQLenPdf::29                      0                       # What write queue length does an incoming req see
system.mem_ctrls.wrQLenPdf::30                      0                       # What write queue length does an incoming req see
system.mem_ctrls.wrQLenPdf::31                      0                       # What write queue length does an incoming req see
system.mem_ctrls.wrQLenPdf::32                      0                       # What write queue length does an incoming req see
system.mem_ctrls.wrQLenPdf::33                      0                       # What write queue length does an incoming req see
system.mem_ctrls.wrQLenPdf::34                      0                       # What write queue length does an incoming req see
system.mem_ctrls.wrQLenPdf::35                      0                       # What write queue length does an incoming req see
system.mem_ctrls.wrQLenPdf::36                      0                       # What write queue length does an incoming req see
system.mem_ctrls.wrQLenPdf::37                      0                       # What write queue length does an incoming req see
system.mem_ctrls.wrQLenPdf::38                      0                       # What write queue length does an incoming req see
system.mem_ctrls.wrQLenPdf::39                      0                       # What write queue length does an incoming req see
system.mem_ctrls.wrQLenPdf::40                      0                       # What write queue length does an incoming req see
system.mem_ctrls.wrQLenPdf::41                      0                       # What write queue length does an incoming req see
system.mem_ctrls.wrQLenPdf::42                      0                       # What write queue length does an incoming req see
system.mem_ctrls.wrQLenPdf::43                      0                       # What write queue length does an incoming req see
system.mem_ctrls.wrQLenPdf::44                      0                       # What write queue length does an incoming req see
system.mem_ctrls.wrQLenPdf::45                      0                       # What write queue length does an incoming req see
system.mem_ctrls.wrQLenPdf::46                      0                       # What write queue length does an incoming req see
system.mem_ctrls.wrQLenPdf::47                      0                       # What write queue length does an incoming req see
system.mem_ctrls.wrQLenPdf::48                      0                       # What write queue length does an incoming req see
system.mem_ctrls.wrQLenPdf::49                      0                       # What write queue length does an incoming req see
system.mem_ctrls.wrQLenPdf::50                      0                       # What write queue length does an incoming req see
system.mem_ctrls.wrQLenPdf::51                      0                       # What write queue length does an incoming req see
system.mem_ctrls.wrQLenPdf::52                      0                       # What write queue length does an incoming req see
system.mem_ctrls.wrQLenPdf::53                      0                       # What write queue length does an incoming req see
system.mem_ctrls.wrQLenPdf::54                      0                       # What write queue length does an incoming req see
system.mem_ctrls.wrQLenPdf::55                      0                       # What write queue length does an incoming req see
system.mem_ctrls.wrQLenPdf::56                      0                       # What write queue length does an incoming req see
system.mem_ctrls.wrQLenPdf::57                      0                       # What write queue length does an incoming req see
system.mem_ctrls.wrQLenPdf::58                      0                       # What write queue length does an incoming req see
system.mem_ctrls.wrQLenPdf::59                      0                       # What write queue length does an incoming req see
system.mem_ctrls.wrQLenPdf::60                      0                       # What write queue length does an incoming req see
system.mem_ctrls.wrQLenPdf::61                      0                       # What write queue length does an incoming req see
system.mem_ctrls.wrQLenPdf::62                      0                       # What write queue length does an incoming req see
system.mem_ctrls.wrQLenPdf::63                      0                       # What write queue length does an incoming req see
system.mem_ctrls.bytesPerActivate::samples         1021                       # Bytes accessed per row activation
system.mem_ctrls.bytesPerActivate::mean    378.985309                       # Bytes accessed per row activation
system.mem_ctrls.bytesPerActivate::gmean   272.413366                       # Bytes accessed per row activation
system.mem_ctrls.bytesPerActivate::stdev   328.457531                       # Bytes accessed per row activation
system.mem_ctrls.bytesPerActivate::128-255          423     41.43%     41.43% # Bytes accessed per row activation
system.mem_ctrls.bytesPerActivate::256-383          268     26.25%     67.68% # Bytes accessed per row activation
system.mem_ctrls.bytesPerActivate::384-511           42      4.11%     71.79% # Bytes accessed per row activation
system.mem_ctrls.bytesPerActivate::512-639           47      4.60%     76.40% # Bytes accessed per row activation
system.mem_ctrls.bytesPerActivate::640-767           42      4.11%     80.51% # Bytes accessed per row activation
system.mem_ctrls.bytesPerActivate::768-895           18      1.76%     82.27% # Bytes accessed per row activation
system.mem_ctrls.bytesPerActivate::896-1023           16      1.57%     83.84% # Bytes accessed per row activation
system.mem_ctrls.bytesPerActivate::1024-1151          165     16.16%    100.00% # Bytes accessed per row activation
system.mem_ctrls.bytesPerActivate::total         1021                       # Bytes accessed per row activation
system.mem_ctrls.bytesReadDRAM                 386944                       # Total number of bytes read from DRAM
system.mem_ctrls.bytesReadWrQ                       0                       # Total number of bytes read from write queue
system.mem_ctrls.bytesWritten                       0                       # Total number of bytes written to DRAM
system.mem_ctrls.bytesReadSys                  386944                       # Total read bytes from the system interface side
system.mem_ctrls.bytesWrittenSys                    0                       # Total written bytes from the system interface side
system.mem_ctrls.avgRdBW                        57.76                       # Average DRAM read bandwidth in MiByte/s
system.mem_ctrls.avgWrBW                         0.00                       # Average achieved write bandwidth in MiByte/s
system.mem_ctrls.avgRdBWSys                     57.76                       # Average system read bandwidth in MiByte/s
system.mem_ctrls.avgWrBWSys                      0.00                       # Average system write bandwidth in MiByte/s
system.mem_ctrls.peakBW                      12800.00                       # Theoretical peak bandwidth in MiByte/s
system.mem_ctrls.busUtil                         0.45                       # Data bus utilization in percentage
system.mem_ctrls.busUtilRead                     0.45                       # Data bus utilization in percentage for reads
system.mem_ctrls.busUtilWrite                    0.00                       # Data bus utilization in percentage for writes
system.mem_ctrls.totGap                    6319620000                       # Total gap between requests
system.mem_ctrls.avgGap                    2090512.74                       # Average gap between requests
system.mem_ctrls.masterReadBytes::.cpu.inst       126976                       # Per-master bytes read from memory
system.mem_ctrls.masterReadBytes::.cpu.data       259968                       # Per-master bytes read from memory
system.mem_ctrls.masterReadRate::.cpu.inst 18952429.589797127992                       # Per-master bytes read from memory rate (Bytes/sec)
system.mem_ctrls.masterReadRate::.cpu.data 38802806.952497951686                       # Per-master bytes read from memory rate (Bytes/sec)
system.mem_ctrls.masterReadAccesses::.cpu.inst         1984                       # Per-master read serviced memory accesses
system.mem_ctrls.masterReadAccesses::.cpu.data         4062                       # Per-master read serviced memory accesses
system.mem_ctrls.masterReadTotalLat::.cpu.inst     56352500                       # Per-master read total memory access latency
system.mem_ctrls.masterReadTotalLat::.cpu.data    124793000                       # Per-master read total memory access latency
system.mem_ctrls.masterReadAvgLat::.cpu.inst     28403.48                       # Per-master read average memory access latency
system.mem_ctrls.masterReadAvgLat::.cpu.data     30722.06                       # Per-master read average memory access latency
system.mem_ctrls.pageHitRate                    83.11                       # Row buffer hit rate, read and write combined
system.mem_ctrls.rank1.actEnergy              4005540                       # Energy for activate commands per rank (pJ)
[...]
system.cpu.icache.ReadReq_avg_miss_latency::.cpu.inst 31212.594458                       # average ReadReq miss latency
system.cpu.icache.ReadReq_avg_miss_latency::total 31212.594458                       # average ReadReq miss latency
system.cpu.icache.ReadReq_mshr_misses::.cpu.inst         3970                       # number of ReadReq MSHR misses
system.cpu.icache.ReadReq_mshr_misses::total         3970                       # number of ReadReq MSHR misses
system.cpu.icache.ReadReq_mshr_miss_latency::.cpu.inst    119944000                       # number of ReadReq MSHR miss cycles
system.cpu.icache.ReadReq_mshr_miss_latency::total    119944000                       # number of ReadReq MSHR miss cycles
system.cpu.icache.ReadReq_mshr_miss_rate::.cpu.inst     0.002120                       # mshr miss rate for ReadReq accesses
system.cpu.icache.ReadReq_mshr_miss_rate::total     0.002120                       # mshr miss rate for ReadReq accesses
system.cpu.icache.ReadReq_avg_mshr_miss_latency::.cpu.inst 30212.594458                       # average ReadReq mshr miss latency
system.cpu.icache.ReadReq_avg_mshr_miss_latency::total 30212.594458                       # average ReadReq mshr miss latency
system.cpu.icache.tags.pwrStateResidencyTicks::UNDEFINED   6699721500                       # Cumulative time (in ticks) in various power states
system.cpu.icache.tags.tagsinuse           255.236748                       # Cycle average of tags in use
system.cpu.icache.tags.total_refs             1872206                       # Total number of references to valid blocks.
system.cpu.icache.tags.sampled_refs              3970                       # Sample count of references to valid blocks.
system.cpu.icache.tags.avg_refs            471.588413                       # Average number of references to valid blocks.
system.cpu.icache.tags.warmup_cycle             92500                       # Cycle when the warmup percentage was hit.
system.cpu.icache.tags.occ_blocks::.cpu.inst   255.236748                       # Average occupied blocks per requestor
system.cpu.icache.tags.occ_percent::.cpu.inst     0.997019                       # Average percentage of cache occupancy
system.cpu.icache.tags.occ_percent::total     0.997019                       # Average percentage of cache occupancy
system.cpu.icache.tags.occ_task_id_blocks::1024          256                       # Occupied blocks per task id
system.cpu.icache.tags.age_task_id_blocks_1024::2           50                       # Occupied blocks per task id
system.cpu.icache.tags.age_task_id_blocks_1024::3          206                       # Occupied blocks per task id
system.cpu.icache.tags.occ_task_id_percent::1024            1                       # Percentage of cache occupancy per task id
system.cpu.icache.tags.tag_accesses           3748382                       # Number of tag accesses
system.cpu.icache.tags.data_accesses          3748382                       # Number of data accesses
system.cpu.dtb.walker.pwrStateResidencyTicks::UNDEFINED   6699721500                       # Cumulative time (in ticks) in various power states
system.cpu.dtb.stage2_mmu.stage2_tlb.walker.pwrStateResidencyTicks::UNDEFINED   6699721500                       # Cumulative time (in ticks) in various power states
system.cpu.dcache.pwrStateResidencyTicks::UNDEFINED   6699721500                       # Cumulative time (in ticks) in various power states
system.cpu.dcache.demand_hits::.cpu.data      4840564                       # number of demand (read+write) hits
system.cpu.dcache.demand_hits::total          4840564                       # number of demand (read+write) hits
system.cpu.dcache.overall_hits::.cpu.data      4847174                       # number of overall hits
system.cpu.dcache.overall_hits::total         4847174                       # number of overall hits
system.cpu.dcache.demand_misses::.cpu.data         9692                       # number of demand (read+write) misses
system.cpu.dcache.demand_misses::total           9692                       # number of demand (read+write) misses
system.cpu.dcache.overall_misses::.cpu.data        12700                       # number of overall misses
system.cpu.dcache.overall_misses::total         12700                       # number of overall misses
system.cpu.dcache.demand_miss_latency::.cpu.data    365462500                       # number of demand (read+write) miss cycles
system.cpu.dcache.demand_miss_latency::total    365462500                       # number of demand (read+write) miss cycles
system.cpu.dcache.overall_miss_latency::.cpu.data    365462500                       # number of overall miss cycles
system.cpu.dcache.overall_miss_latency::total    365462500                       # number of overall miss cycles
system.cpu.dcache.demand_accesses::.cpu.data      4850256                       # number of demand (read+write) accesses
system.cpu.dcache.demand_accesses::total      4850256                       # number of demand (read+write) accesses
system.cpu.dcache.overall_accesses::.cpu.data      4859874                       # number of overall (read+write) accesses
system.cpu.dcache.overall_accesses::total      4859874                       # number of overall (read+write) accesses
system.cpu.dcache.demand_miss_rate::.cpu.data     0.001998                       # miss rate for demand accesses
system.cpu.dcache.demand_miss_rate::total     0.001998                       # miss rate for demand accesses
system.cpu.dcache.overall_miss_rate::.cpu.data     0.002613                       # miss rate for overall accesses
system.cpu.dcache.overall_miss_rate::total     0.002613                       # miss rate for overall accesses
system.cpu.dcache.demand_avg_miss_latency::.cpu.data 37707.645481                       # average overall miss latency
system.cpu.dcache.demand_avg_miss_latency::total 37707.645481                       # average overall miss latency
system.cpu.dcache.overall_avg_miss_latency::.cpu.data 28776.574803                       # average overall miss latency
system.cpu.dcache.overall_avg_miss_latency::total 28776.574803                       # average overall miss latency
system.cpu.dcache.blocked_cycles::no_mshrs            0                       # number of cycles access was blocked
system.cpu.dcache.blocked_cycles::no_targets            0                       # number of cycles access was blocked
system.cpu.dcache.blocked::no_mshrs                 0                       # number of cycles access was blocked
system.cpu.dcache.blocked::no_targets               0                       # number of cycles access was blocked
system.cpu.dcache.avg_blocked_cycles::no_mshrs          nan                       # average number of cycles each access was blocked
system.cpu.dcache.avg_blocked_cycles::no_targets          nan                       # average number of cycles each access was blocked
system.cpu.dcache.writebacks::.writebacks         7438                       # number of writebacks
system.cpu.dcache.writebacks::total              7438                       # number of writebacks
system.cpu.dcache.demand_mshr_hits::.cpu.data         2819                       # number of demand (read+write) MSHR hits
system.cpu.dcache.demand_mshr_hits::total         2819                       # number of demand (read+write) MSHR hits
system.cpu.dcache.overall_mshr_hits::.cpu.data         2819                       # number of overall MSHR hits
system.cpu.dcache.overall_mshr_hits::total         2819                       # number of overall MSHR hits
system.cpu.dcache.demand_mshr_misses::.cpu.data         6873                       # number of demand (read+write) MSHR misses
system.cpu.dcache.demand_mshr_misses::total         6873                       # number of demand (read+write) MSHR misses
system.cpu.dcache.overall_mshr_misses::.cpu.data         8637                       # number of overall MSHR misses
system.cpu.dcache.overall_mshr_misses::total         8637                       # number of overall MSHR misses
system.cpu.dcache.demand_mshr_miss_latency::.cpu.data    230508000                       # number of demand (read+write) MSHR miss cycles
system.cpu.dcache.demand_mshr_miss_latency::total    230508000                       # number of demand (read+write) MSHR miss cycles
system.cpu.dcache.overall_mshr_miss_latency::.cpu.data    256075500                       # number of overall MSHR miss cycles
system.cpu.dcache.overall_mshr_miss_latency::total    256075500                       # number of overall MSHR miss cycles
system.cpu.dcache.demand_mshr_miss_rate::.cpu.data     0.001417                       # mshr miss rate for demand accesses
system.cpu.dcache.demand_mshr_miss_rate::total     0.001417                       # mshr miss rate for demand accesses
system.cpu.dcache.overall_mshr_miss_rate::.cpu.data     0.001777                       # mshr miss rate for overall accesses
system.cpu.dcache.overall_mshr_miss_rate::total     0.001777                       # mshr miss rate for overall accesses
system.cpu.dcache.demand_avg_mshr_miss_latency::.cpu.data 33538.192929                       # average overall mshr miss latency
system.cpu.dcache.demand_avg_mshr_miss_latency::total 33538.192929                       # average overall mshr miss latency
system.cpu.dcache.overall_avg_mshr_miss_latency::.cpu.data 29648.662730                       # average overall mshr miss latency
system.cpu.dcache.overall_avg_mshr_miss_latency::total 29648.662730                       # average overall mshr miss latency
system.cpu.dcache.replacements                   8125                       # number of replacements
system.cpu.dcache.ReadReq_hits::.cpu.data      4005368                       # number of ReadReq hits
system.cpu.dcache.ReadReq_hits::total         4005368                       # number of ReadReq hits
system.cpu.dcache.ReadReq_misses::.cpu.data         1787                       # number of ReadReq misses
system.cpu.dcache.ReadReq_misses::total          1787                       # number of ReadReq misses
system.cpu.dcache.ReadReq_miss_latency::.cpu.data     52658000                       # number of ReadReq miss cycles
system.cpu.dcache.ReadReq_miss_latency::total     52658000                       # number of ReadReq miss cycles
system.cpu.dcache.ReadReq_accesses::.cpu.data      4007155                       # number of ReadReq accesses(hits+misses)
system.cpu.dcache.ReadReq_accesses::total      4007155                       # number of ReadReq accesses(hits+misses)
system.cpu.dcache.ReadReq_miss_rate::.cpu.data     0.000446                       # miss rate for ReadReq accesses
system.cpu.dcache.ReadReq_miss_rate::total     0.000446                       # miss rate for ReadReq accesses
system.cpu.dcache.ReadReq_avg_miss_latency::.cpu.data 29467.263570                       # average ReadReq miss latency
system.cpu.dcache.ReadReq_avg_miss_latency::total 29467.263570                       # average ReadReq miss latency
system.cpu.dcache.ReadReq_mshr_hits::.cpu.data          145                       # number of ReadReq MSHR hits
system.cpu.dcache.ReadReq_mshr_hits::total          145                       # number of ReadReq MSHR hits
system.cpu.dcache.ReadReq_mshr_misses::.cpu.data         1642                       # number of ReadReq MSHR misses
system.cpu.dcache.ReadReq_mshr_misses::total         1642                       # number of ReadReq MSHR misses
system.cpu.dcache.ReadReq_mshr_miss_latency::.cpu.data     43858000                       # number of ReadReq MSHR miss cycles
system.cpu.dcache.ReadReq_mshr_miss_latency::total     43858000                       # number of ReadReq MSHR miss cycles
system.cpu.dcache.ReadReq_mshr_miss_rate::.cpu.data     0.000410                       # mshr miss rate for ReadReq accesses
system.cpu.dcache.ReadReq_mshr_miss_rate::total     0.000410                       # mshr miss rate for ReadReq accesses
system.cpu.dcache.ReadReq_avg_mshr_miss_latency::.cpu.data 26710.109622                       # average ReadReq mshr miss latency
system.cpu.dcache.ReadReq_avg_mshr_miss_latency::total 26710.109622                       # average ReadReq mshr miss latency
system.cpu.dcache.WriteReq_hits::.cpu.data       835196                       # number of WriteReq hits
system.cpu.dcache.WriteReq_hits::total         835196                       # number of WriteReq hits
system.cpu.dcache.WriteReq_misses::.cpu.data         7905                       # number of WriteReq misses
system.cpu.dcache.WriteReq_misses::total         7905                       # number of WriteReq misses
system.cpu.dcache.WriteReq_miss_latency::.cpu.data    312804500                       # number of WriteReq miss cycles
system.cpu.dcache.WriteReq_miss_latency::total    312804500                       # number of WriteReq miss cycles
system.cpu.dcache.WriteReq_accesses::.cpu.data       843101                       # number of WriteReq accesses(hits+misses)
system.cpu.dcache.WriteReq_accesses::total       843101                       # number of WriteReq accesses(hits+misses)
system.cpu.dcache.WriteReq_miss_rate::.cpu.data     0.009376                       # miss rate for WriteReq accesses
system.cpu.dcache.WriteReq_miss_rate::total     0.009376                       # miss rate for WriteReq accesses
system.cpu.dcache.WriteReq_avg_miss_latency::.cpu.data 39570.461733                       # average WriteReq miss latency
system.cpu.dcache.WriteReq_avg_miss_latency::total 39570.461733                       # average WriteReq miss latency
system.cpu.dcache.WriteReq_mshr_hits::.cpu.data         2674                       # number of WriteReq MSHR hits
system.cpu.dcache.WriteReq_mshr_hits::total         2674                       # number of WriteReq MSHR hits
system.cpu.dcache.WriteReq_mshr_misses::.cpu.data         5231                       # number of WriteReq MSHR misses
system.cpu.dcache.WriteReq_mshr_misses::total         5231                       # number of WriteReq MSHR misses
system.cpu.dcache.WriteReq_mshr_miss_latency::.cpu.data    186650000                       # number of WriteReq MSHR miss cycles
system.cpu.dcache.WriteReq_mshr_miss_latency::total    186650000                       # number of WriteReq MSHR miss cycles
system.cpu.dcache.WriteReq_mshr_miss_rate::.cpu.data     0.006204                       # mshr miss rate for WriteReq accesses
system.cpu.dcache.WriteReq_mshr_miss_rate::total     0.006204                       # mshr miss rate for WriteReq accesses
system.cpu.dcache.WriteReq_avg_mshr_miss_latency::.cpu.data 35681.514051                       # average WriteReq mshr miss latency
system.cpu.dcache.WriteReq_avg_mshr_miss_latency::total 35681.514051                       # average WriteReq mshr miss latency
system.cpu.dcache.SoftPFReq_hits::.cpu.data         6610                       # number of SoftPFReq hits
system.cpu.dcache.SoftPFReq_hits::total          6610                       # number of SoftPFReq hits
system.cpu.dcache.SoftPFReq_misses::.cpu.data         3008                       # number of SoftPFReq misses
system.cpu.dcache.SoftPFReq_misses::total         3008                       # number of SoftPFReq misses
system.cpu.dcache.SoftPFReq_accesses::.cpu.data         9618                       # number of SoftPFReq accesses(hits+misses)
system.cpu.dcache.SoftPFReq_accesses::total         9618                       # number of SoftPFReq accesses(hits+misses)
system.cpu.dcache.SoftPFReq_miss_rate::.cpu.data     0.312747                       # miss rate for SoftPFReq accesses
system.cpu.dcache.SoftPFReq_miss_rate::total     0.312747                       # miss rate for SoftPFReq accesses
system.cpu.dcache.SoftPFReq_mshr_misses::.cpu.data         1764                       # number of SoftPFReq MSHR misses
system.cpu.dcache.SoftPFReq_mshr_misses::total         1764                       # number of SoftPFReq MSHR misses
system.cpu.dcache.SoftPFReq_mshr_miss_latency::.cpu.data     25567500                       # number of SoftPFReq MSHR miss cycles
system.cpu.dcache.SoftPFReq_mshr_miss_latency::total     25567500                       # number of SoftPFReq MSHR miss cycles
system.cpu.dcache.SoftPFReq_mshr_miss_rate::.cpu.data     0.183406                       # mshr miss rate for SoftPFReq accesses
system.cpu.dcache.SoftPFReq_mshr_miss_rate::total     0.183406                       # mshr miss rate for SoftPFReq accesses
system.cpu.dcache.SoftPFReq_avg_mshr_miss_latency::.cpu.data 14494.047619                       # average SoftPFReq mshr miss latency
system.cpu.dcache.SoftPFReq_avg_mshr_miss_latency::total 14494.047619                       # average SoftPFReq mshr miss latency
system.cpu.dcache.LoadLockedReq_hits::.cpu.data          166                       # number of LoadLockedReq hits
system.cpu.dcache.LoadLockedReq_hits::total          166                       # number of LoadLockedReq hits
system.cpu.dcache.LoadLockedReq_accesses::.cpu.data          166                       # number of LoadLockedReq accesses(hits+misses)
system.cpu.dcache.LoadLockedReq_accesses::total          166                       # number of LoadLockedReq accesses(hits+misses)
system.cpu.dcache.StoreCondReq_hits::.cpu.data          166                       # number of StoreCondReq hits
system.cpu.dcache.StoreCondReq_hits::total          166                       # number of StoreCondReq hits
system.cpu.dcache.StoreCondReq_accesses::.cpu.data          166                       # number of StoreCondReq accesses(hits+misses)
system.cpu.dcache.StoreCondReq_accesses::total          166                       # number of StoreCondReq accesses(hits+misses)
system.cpu.dcache.tags.pwrStateResidencyTicks::UNDEFINED   6699721500                       # Cumulative time (in ticks) in various power states
system.cpu.dcache.tags.tagsinuse           483.385568                       # Cycle average of tags in use
system.cpu.dcache.tags.total_refs             4856143                       # Total number of references to valid blocks.
system.cpu.dcache.tags.sampled_refs              8637                       # Sample count of references to valid blocks.
system.cpu.dcache.tags.avg_refs            562.248813                       # Average number of references to valid blocks.
system.cpu.dcache.tags.warmup_cycle            186500                       # Cycle when the warmup percentage was hit.
system.cpu.dcache.tags.occ_blocks::.cpu.data   483.385568                       # Average occupied blocks per requestor
system.cpu.dcache.tags.occ_percent::.cpu.data     0.944112                       # Average percentage of cache occupancy
system.cpu.dcache.tags.occ_percent::total     0.944112                       # Average percentage of cache occupancy
system.cpu.dcache.tags.occ_task_id_blocks::1024          512                       # Occupied blocks per task id
system.cpu.dcache.tags.age_task_id_blocks_1024::0            4                       # Occupied blocks per task id
system.cpu.dcache.tags.age_task_id_blocks_1024::1           59                       # Occupied blocks per task id
system.cpu.dcache.tags.age_task_id_blocks_1024::2          449                       # Occupied blocks per task id
system.cpu.dcache.tags.occ_task_id_percent::1024            1                       # Percentage of cache occupancy per task id
system.cpu.dcache.tags.tag_accesses           9729049                       # Number of tag accesses
system.cpu.dcache.tags.data_accesses          9729049                       # Number of data accesses
system.cpu.itb.walker.pwrStateResidencyTicks::UNDEFINED   6699721500                       # Cumulative time (in ticks) in various power states
system.cpu.itb.stage2_mmu.stage2_tlb.walker.pwrStateResidencyTicks::UNDEFINED   6699721500                       # Cumulative time (in ticks) in various power states

---------- End Simulation Statistics   ----------
