
---------- Begin Simulation Statistics ----------
final_tick                                63243608000                       # Number of ticks from beginning of simulation (restored from checkpoints and never reset)
host_inst_rate                                 318736                       # Simulator instruction rate (inst/s)
host_mem_usage                                 689960                       # Number of bytes of host memory used
host_op_rate                                   323104                       # Simulator op (including micro ops) rate (op/s)
host_seconds                                   313.74                       # Real time elapsed on the host
host_tick_rate                              201579798                       # Simulator tick rate (ticks/s)
sim_freq                                 1000000000000                       # Frequency of simulated ticks
sim_insts                                   100000000                       # Number of instructions simulated
sim_ops                                     101370573                       # Number of ops (including micro ops) simulated
sim_seconds                                  0.063244                       # Number of seconds simulated
sim_ticks                                 63243608000                       # Number of ticks simulated
system.cpu.branchPred.BTBCorrect                    0                       # Number of correct BTB predictions (this stat may not work properly.
system.cpu.branchPred.BTBHitPct             84.501186                       # BTB Hit Percentage
system.cpu.branchPred.BTBHits                 4549363                       # Number of BTB hits
system.cpu.branchPred.BTBLookups              5383786                       # Number of BTB lookups
system.cpu.branchPred.RASInCorrect                 91                       # Number of incorrect RAS predictions.
system.cpu.branchPred.condIncorrect            381642                       # Number of conditional branches incorrect
system.cpu.branchPred.condPredicted           5724288                       # Number of conditional branches predicted
system.cpu.branchPred.indirectHits             141382                       # Number of indirect target hits.
system.cpu.branchPred.indirectLookups          764251                       # Number of indirect predictor lookups.
system.cpu.branchPred.indirectMisses           622869                       # Number of indirect misses.
system.cpu.branchPred.lookups                 7241694                       # Number of BP lookups
system.cpu.branchPred.usedRAS                  373275                       # Number of times the RAS was used to get a target.
system.cpu.branchPredindirectMispredicted        39705                       # Number of mispredicted indirect branches.
system.cpu.committedInsts                   100000000                       # Number of instructions committed
system.cpu.committedOps                     101370573                       # Number of ops (including micro ops) committed
system.cpu.cpi                               1.264872                       # CPI: cycles per instruction
system.cpu.discardedOps                       1024523                       # Number of ops (including micro ops) which were discarded before commit
system.cpu.dtb.accesses                             0                       # DTB accesses
system.cpu.dtb.align_faults                         0                       # Number of TLB faults due to alignment restrictions
system.cpu.dtb.domain_faults                        0                       # Number of TLB faults due to domain restrictions
system.cpu.dtb.flush_entries                        0                       # Number of entries that have been flushed from TLB
system.cpu.dtb.flush_tlb                            0                       # Number of times complete TLB was flushed
system.cpu.dtb.flush_tlb_asid                       0                       # Number of times TLB was flushed by ASID
system.cpu.dtb.flush_tlb_mva                        0                       # Number of times TLB was flushed by MVA
system.cpu.dtb.flush_tlb_mva_asid                   0                       # Number of times TLB was flushed by MVA & ASID
system.cpu.dtb.hits                                 0                       # DTB hits
system.cpu.dtb.inst_accesses                        0                       # ITB inst accesses
system.cpu.dtb.inst_hits                            0                       # ITB inst hits
system.cpu.dtb.inst_misses                          0                       # ITB inst misses
system.cpu.dtb.misses                               0                       # DTB misses
system.cpu.dtb.perms_faults                         0                       # Number of TLB faults due to permissions restrictions
system.cpu.dtb.prefetch_faults                      0                       # Number of TLB faults due to prefetch
system.cpu.dtb.read_accesses                        0                       # DTB read accesses
system.cpu.dtb.read_hits                            0                       # DTB read hits
system.cpu.dtb.read_misses                          0                       # DTB read misses
system.cpu.dtb.stage2_mmu.stage2_tlb.accesses            0                       # DTB accesses
system.cpu.dtb.stage2_mmu.stage2_tlb.align_faults            0                       # Number of TLB faults due to alignment restrictions
system.cpu.dtb.stage2_mmu.stage2_tlb.domain_faults            0                       # Number of TLB faults due to domain restrictions
system.cpu.dtb.stage2_mmu.stage2_tlb.flush_entries            0                       # Number of entries that have been flushed from TLB
system.cpu.dtb.stage2_mmu.stage2_tlb.flush_tlb            0                       # Number of times complete TLB was flushed
system.cpu.dtb.stage2_mmu.stage2_tlb.flush_tlb_asid            0                       # Number of times TLB was flushed by ASID
system.cpu.dtb.stage2_mmu.stage2_tlb.flush_tlb_mva            0                       # Number of times TLB was flushed by MVA
system.cpu.dtb.stage2_mmu.stage2_tlb.flush_tlb_mva_asid            0                       # Number of times TLB was flushed by MVA & ASID
system.cpu.dtb.stage2_mmu.stage2_tlb.hits            0                       # DTB hits
system.cpu.dtb.stage2_mmu.stage2_tlb.inst_accesses            0                       # ITB inst accesses
system.cpu.dtb.stage2_mmu.stage2_tlb.inst_hits            0                       # ITB inst hits
system.cpu.dtb.stage2_mmu.stage2_tlb.inst_misses            0                       # ITB inst misses
system.cpu.dtb.stage2_mmu.stage2_tlb.misses            0                       # DTB misses
system.cpu.dtb.stage2_mmu.stage2_tlb.perms_faults            0                       # Number of TLB faults due to permissions restrictions
system.cpu.dtb.stage2_mmu.stage2_tlb.prefetch_faults            0                       # Number of TLB faults due to prefetch
system.cpu.dtb.stage2_mmu.stage2_tlb.read_accesses            0                       # DTB read accesses
system.cpu.dtb.stage2_mmu.stage2_tlb.read_hits            0                       # DTB read hits
system.cpu.dtb.stage2_mmu.stage2_tlb.read_misses            0                       # DTB read misses
system.cpu.dtb.stage2_mmu.stage2_tlb.walker.walkRequestOrigin_Requested::Data            0                       # Table walker requests started/completed, data/inst
system.cpu.dtb.stage2_mmu.stage2_tlb.walker.walkRequestOrigin_Requested::Inst            0                       # Table walker requests started/completed, data/inst
system.cpu.dtb.stage2_mmu.stage2_tlb.walker.walkRequestOrigin_Requested::total            0                       # Table walker requests started/completed, data/inst
system.cpu.dtb.stage2_mmu.stage2_tlb.walker.walkRequestOrigin_Completed::Data            0                       # Table walker requests started/completed, data/inst
system.cpu.dtb.stage2_mmu.stage2_tlb.walker.walkRequestOrigin_Completed::Inst            0                       # Table walker requests started/completed, data/inst
system.cpu.dtb.stage2_mmu.stage2_tlb.walker.walkRequestOrigin_Completed::total            0                       # Table walker requests started/completed, data/inst
system.cpu.dtb.stage2_mmu.stage2_tlb.walker.walkRequestOrigin::total            0                       # Table walker requests started/completed, data/inst
system.cpu.dtb.stage2_mmu.stage2_tlb.walker.walks            0                       # Table walker walks requested
system.cpu.dtb.stage2_mmu.stage2_tlb.write_accesses            0                       # DTB write accesses
system.cpu.dtb.stage2_mmu.stage2_tlb.write_hits            0                       # DTB write hits
system.cpu.dtb.stage2_mmu.stage2_tlb.write_misses            0                       # DTB write misses
system.cpu.dtb.walker.walkRequestOrigin_Requested::Data            0                       # Table walker requests started/completed, data/inst
system.cpu.dtb.walker.walkRequestOrigin_Requested::Inst            0                       # Table walker requests started/completed, data/inst
system.cpu.dtb.walker.walkRequestOrigin_Requested::total            0                       # Table walker requests started/completed, data/inst
system.cpu.dtb.walker.walkRequestOrigin_Completed::Data            0                       # Table walker requests started/completed, data/inst
system.cpu.dtb.walker.walkRequestOrigin_Completed::Inst            0                       # Table walker requests started/completed, data/inst
system.cpu.dtb.walker.walkRequestOrigin_Completed::total            0                       # Table walker requests started/completed, data/inst
system.cpu.dtb.walker.walkRequestOrigin::total            0                       # Table walker requests started/completed, data/inst
system.cpu.dtb.walker.walks                         0                       # Table walker walks requested
system.cpu.dtb.write_accesses                       0                       # DTB write accesses
system.cpu.dtb.write_hits                           0                       # DTB write hits
system.cpu.dtb.write_misses                         0                       # DTB write misses
system.cpu.fetch2.amo_instructions                  0                       # Number of memory atomic instructions successfully decoded
system.cpu.fetch2.fp_instructions                   0                       # Number of floating point instructions successfully decoded
system.cpu.fetch2.int_instructions           47623960                       # Number of integer instructions successfully decoded
system.cpu.fetch2.load_instructions          45770277                       # Number of memory load instructions successfully decoded
system.cpu.fetch2.store_instructions          6792737                       # Number of memory store instructions successfully decoded
system.cpu.fetch2.vec_instructions                  0                       # Number of SIMD instructions successfully decoded
system.cpu.idleCycles                         3612472                       # Total number of cycles that the object has spent stopped
system.cpu.ipc                               0.790594                       # IPC: instructions per cycle
system.cpu.itb.accesses                             0                       # DTB accesses
system.cpu.itb.align_faults                         0                       # Number of TLB faults due to alignment restrictions
system.cpu.itb.domain_faults                        0                       # Number of TLB faults due to domain restrictions
system.cpu.itb.flush_entries                        0                       # Number of entries that have been flushed from TLB
system.cpu.itb.flush_tlb                            0                       # Number of times complete TLB was flushed
system.cpu.itb.flush_tlb_asid                       0                       # Number of times TLB was flushed by ASID
system.cpu.itb.flush_tlb_mva                        0                       # Number of times TLB was flushed by MVA
system.cpu.itb.flush_tlb_mva_asid                   0                       # Number of times TLB was flushed by MVA & ASID
system.cpu.itb.hits                                 0                       # DTB hits
system.cpu.itb.inst_accesses                        0                       # ITB inst accesses
system.cpu.itb.inst_hits                            0                       # ITB inst hits
system.cpu.itb.inst_misses                          0                       # ITB inst misses
system.cpu.itb.misses                               0                       # DTB misses
system.cpu.itb.perms_faults                         0                       # Number of TLB faults due to permissions restrictions
system.cpu.itb.prefetch_faults                      0                       # Number of TLB faults due to prefetch
system.cpu.itb.read_accesses                        0                       # DTB read accesses
system.cpu.itb.read_hits                            0                       # DTB read hits
system.cpu.itb.read_misses                          0                       # DTB read misses
system.cpu.itb.stage2_mmu.stage2_tlb.accesses            0                       # DTB accesses
system.cpu.itb.stage2_mmu.stage2_tlb.align_faults            0                       # Number of TLB faults due to alignment restrictions
system.cpu.itb.stage2_mmu.stage2_tlb.domain_faults            0                       # Number of TLB faults due to domain restrictions
system.cpu.itb.stage2_mmu.stage2_tlb.flush_entries            0                       # Number of entries that have been flushed from TLB
system.cpu.itb.stage2_mmu.stage2_tlb.flush_tlb            0                       # Number of times complete TLB was flushed
system.cpu.itb.stage2_mmu.stage2_tlb.flush_tlb_asid            0                       # Number of times TLB was flushed by ASID
system.cpu.itb.stage2_mmu.stage2_tlb.flush_tlb_mva            0                       # Number of times TLB was flushed by MVA
system.cpu.itb.stage2_mmu.stage2_tlb.flush_tlb_mva_asid            0                       # Number of times TLB was flushed by MVA & ASID
system.cpu.itb.stage2_mmu.stage2_tlb.hits            0                       # DTB hits
system.cpu.itb.stage2_mmu.stage2_tlb.inst_accesses            0                       # ITB inst accesses
system.cpu.itb.stage2_mmu.stage2_tlb.inst_hits            0                       # ITB inst hits
system.cpu.itb.stage2_mmu.stage2_tlb.inst_misses            0                       # ITB inst misses
system.cpu.itb.stage2_mmu.stage2_tlb.misses            0                       # DTB misses
system.cpu.itb.stage2_mmu.stage2_tlb.perms_faults            0                       # Number of TLB faults due to permissions restrictions
system.cpu.itb.stage2_mmu.stage2_tlb.prefetch_faults            0                       # Number of TLB faults due to prefetch
system.cpu.itb.stage2_mmu.stage2_tlb.read_accesses            0                       # DTB read accesses
system.cpu.itb.stage2_mmu.stage2_tlb.read_hits            0                       # DTB read hits
system.cpu.itb.stage2_mmu.stage2_tlb.read_misses            0                       # DTB read misses
system.cpu.itb.stage2_mmu.stage2_tlb.walker.walkRequestOrigin_Requested::Data            0                       # Table walker requests started/completed, data/inst
system.cpu.itb.stage2_mmu.stage2_tlb.walker.walkRequestOrigin_Requested::Inst            0                       # Table walker requests started/completed, data/inst
system.cpu.itb.stage2_mmu.stage2_tlb.walker.walkRequestOrigin_Requested::total            0                       # Table walker requests started/completed, data/inst
system.cpu.itb.stage2_mmu.stage2_tlb.walker.walkRequestOrigin_Completed::Data            0                       # Table walker requests started/completed, data/inst
system.cpu.itb.stage2_mmu.stage2_tlb.walker.walkRequestOrigin_Completed::Inst            0                       # Table walker requests started/completed, data/inst
system.cpu.itb.stage2_mmu.stage2_tlb.walker.walkRequestOrigin_Completed::total            0                       # Table walker requests started/completed, data/inst
system.cpu.itb.stage2_mmu.stage2_tlb.walker.walkRequestOrigin::total            0                       # Table walker requests started/completed, data/inst
system.cpu.itb.stage2_mmu.stage2_tlb.walker.walks            0                       # Table walker walks requested
system.cpu.itb.stage2_mmu.stage2_tlb.write_accesses            0                       # DTB write accesses
system.cpu.itb.stage2_mmu.stage2_tlb.write_hits            0                       # DTB write hits
system.cpu.itb.stage2_mmu.stage2_tlb.write_misses            0                       # DTB write misses
system.cpu.itb.walker.walkRequestOrigin_Requested::Data            0                       # Table walker requests started/completed, data/inst
system.cpu.itb.walker.walkRequestOrigin_Requested::Inst            0                       # Table walker requests started/completed, data/inst
system.cpu.itb.walker.walkRequestOrigin_Requested::total            0                       # Table walker requests started/completed, data/inst
system.cpu.itb.walker.walkRequestOrigin_Completed::Data            0                       # Table walker requests started/completed, data/inst
system.cpu.itb.walker.walkRequestOrigin_Completed::Inst            0                       # Table walker requests started/completed, data/inst
system.cpu.itb.walker.walkRequestOrigin_Completed::total            0                       # Table walker requests started/completed, data/inst
system.cpu.itb.walker.walkRequestOrigin::total            0                       # Table walker requests started/completed, data/inst
system.cpu.itb.walker.walks                         0                       # Table walker walks requested
system.cpu.itb.write_accesses                       0                       # DTB write accesses
system.cpu.itb.write_hits                           0                       # DTB write hits
system.cpu.itb.write_misses                         0                       # DTB write misses
system.cpu.numCycles                        126487216                       # number of cpu cycles simulated
system.cpu.numFetchSuspends                         0                       # Number of times Execute suspended instruction fetching
system.cpu.numWorkItemsCompleted                    0                       # number of work items this cpu completed
system.cpu.numWorkItemsStarted                      0                       # number of work items this cpu started
system.cpu.op_class_0::No_OpClass                   0      0.00%      0.00% # Class of committed instruction
system.cpu.op_class_0::IntAlu                49905942     49.23%     49.23% # Class of committed instruction
system.cpu.op_class_0::IntMult                 177470      0.18%     49.41% # Class of committed instruction
system.cpu.op_class_0::IntDiv                       0      0.00%     49.41% # Class of committed instruction
system.cpu.op_class_0::FloatAdd                     0      0.00%     49.41% # Class of committed instruction
system.cpu.op_class_0::FloatCmp                     0      0.00%     49.41% # Class of committed instruction
system.cpu.op_class_0::FloatCvt                     0      0.00%     49.41% # Class of committed instruction
system.cpu.op_class_0::FloatMult                    0      0.00%     49.41% # Class of committed instruction
system.cpu.op_class_0::FloatMultAcc                 0      0.00%     49.41% # Class of committed instruction
system.cpu.op_class_0::FloatDiv                     0      0.00%     49.41% # Class of committed instruction
system.cpu.op_class_0::FloatMisc                    0      0.00%     49.41% # Class of committed instruction
system.cpu.op_class_0::FloatSqrt                    0      0.00%     49.41% # Class of committed instruction
system.cpu.op_class_0::SimdAdd                      0      0.00%     49.41% # Class of committed instruction
system.cpu.op_class_0::SimdAddAcc                   0      0.00%     49.41% # Class of committed instruction
system.cpu.op_class_0::SimdAlu                      0      0.00%     49.41% # Class of committed instruction
system.cpu.op_class_0::SimdCmp                      0      0.00%     49.41% # Class of committed instruction
system.cpu.op_class_0::SimdCvt                      0      0.00%     49.41% # Class of committed instruction
system.cpu.op_class_0::SimdMisc                     0      0.00%     49.41% # Class of committed instruction
system.cpu.op_class_0::SimdMult                     0      0.00%     49.41% # Class of committed instruction
system.cpu.op_class_0::SimdMultAcc                  0      0.00%     49.41% # Class of committed instruction
system.cpu.op_class_0::SimdShift                    0      0.00%     49.41% # Class of committed instruction
system.cpu.op_class_0::SimdShiftAcc                 0      0.00%     49.41% # Class of committed instruction
system.cpu.op_class_0::SimdDiv                      0      0.00%     49.41% # Class of committed instruction
system.cpu.op_class_0::SimdSqrt                     0      0.00%     49.41% # Class of committed instruction
system.cpu.op_class_0::SimdFloatAdd            290681      0.29%     49.69% # Class of committed instruction
system.cpu.op_class_0::SimdFloatAlu                 0      0.00%     49.69% # Class of committed instruction
system.cpu.op_class_0::SimdFloatCmp            282654      0.28%     49.97% # Class of committed instruction
system.cpu.op_class_0::SimdFloatCvt            175620      0.17%     50.15% # Class of committed instruction
system.cpu.op_class_0::SimdFloatDiv             58978      0.06%     50.20% # Class of committed instruction
system.cpu.op_class_0::SimdFloatMisc           523798      0.52%     50.72% # Class of committed instruction
system.cpu.op_class_0::SimdFloatMult            35955      0.04%     50.76% # Class of committed instruction
system.cpu.op_class_0::SimdFloatMultAcc         11115      0.01%     50.77% # Class of committed instruction
system.cpu.op_class_0::SimdFloatSqrt                0      0.00%     50.77% # Class of committed instruction
system.cpu.op_class_0::SimdReduceAdd                0      0.00%     50.77% # Class of committed instruction
system.cpu.op_class_0::SimdReduceAlu                0      0.00%     50.77% # Class of committed instruction
system.cpu.op_class_0::SimdReduceCmp                0      0.00%     50.77% # Class of committed instruction
system.cpu.op_class_0::SimdFloatReduceAdd            0      0.00%     50.77% # Class of committed instruction
system.cpu.op_class_0::SimdFloatReduceCmp            0      0.00%     50.77% # Class of committed instruction
system.cpu.op_class_0::SimdAes                      0      0.00%     50.77% # Class of committed instruction
system.cpu.op_class_0::SimdAesMix                   0      0.00%     50.77% # Class of committed instruction
system.cpu.op_class_0::SimdSha1Hash                 0      0.00%     50.77% # Class of committed instruction
system.cpu.op_class_0::SimdSha1Hash2                0      0.00%     50.77% # Class of committed instruction
system.cpu.op_class_0::SimdSha256Hash               0      0.00%     50.77% # Class of committed instruction
system.cpu.op_class_0::SimdSha256Hash2              0      0.00%     50.77% # Class of committed instruction
system.cpu.op_class_0::SimdShaSigma2                0      0.00%     50.77% # Class of committed instruction
system.cpu.op_class_0::SimdShaSigma3                0      0.00%     50.77% # Class of committed instruction
system.cpu.op_class_0::SimdPredAlu                  0      0.00%     50.77% # Class of committed instruction
system.cpu.op_class_0::MemRead               42927776     42.35%     93.11% # Class of committed instruction
system.cpu.op_class_0::MemWrite               6980584      6.89%    100.00% # Class of committed instruction
system.cpu.op_class_0::FloatMemRead                 0      0.00%    100.00% # Class of committed instruction
system.cpu.op_class_0::FloatMemWrite                0      0.00%    100.00% # Class of committed instruction
system.cpu.op_class_0::IprAccess                    0      0.00%    100.00% # Class of committed instruction
system.cpu.op_class_0::InstPrefetch                 0      0.00%    100.00% # Class of committed instruction
system.cpu.op_class_0::total                101370573                       # Class of committed instruction
system.cpu.tickCycles                       122874744                       # Number of cycles that the object actually ticked
system.cpu.workload.numSyscalls                    32                       # Number of system calls
system.membus.snoop_filter.hit_multi_requests            0                       # Number of requests hitting in the snoop filter with multiple (>1) holders of the requested data.
system.membus.snoop_filter.hit_multi_snoops            0                       # Number of snoops hitting in the snoop filter with multiple (>1) holders of the requested data.
system.membus.snoop_filter.hit_single_requests            0                       # Number of requests hitting in the snoop filter with a single holder of the requested data.
system.membus.snoop_filter.hit_single_snoops            0                       # Number of snoops hitting in the snoop filter with a single holder of the requested data.
system.membus.snoop_filter.tot_requests          1770                       # Total number of requests made to the snoop filter.
system.membus.snoop_filter.tot_snoops               0                       # Total number of snoops made to the snoop filter.
system.tol2bus.snoop_filter.hit_multi_requests         1600                       # Number of requests hitting in the snoop filter with multiple (>1) holders of the requested data.
system.tol2bus.snoop_filter.hit_multi_snoops            0                       # Number of snoops hitting in the snoop filter with multiple (>1) holders of the requested data.
system.tol2bus.snoop_filter.hit_single_requests        33767                       # Number of requests hitting in the snoop filter with a single holder of the requested data.
system.tol2bus.snoop_filter.hit_single_snoops            0                       # Number of snoops hitting in the snoop filter with a single holder of the requested data.
system.tol2bus.snoop_filter.tot_requests        67892                       # Total number of requests made to the snoop filter.
system.tol2bus.snoop_filter.tot_snoops              0                       # Total number of snoops made to the snoop filter.
system.membus.pwrStateResidencyTicks::UNDEFINED  63243608000                       # Cumulative time (in ticks) in various power states
system.membus.trans_dist::ReadResp                834                       # Transaction distribution
system.membus.trans_dist::ReadExReq               936                       # Transaction distribution
system.membus.trans_dist::ReadExResp              936                       # Transaction distribution
system.membus.trans_dist::ReadSharedReq           834                       # Transaction distribution
system.membus.pkt_count_system.l2.mem_side::system.mem_ctrls.port         3540                       # Packet count per connected master and slave (bytes)
system.membus.pkt_count::total                   3540                       # Packet count per connected master and slave (bytes)
system.membus.pkt_size_system.l2.mem_side::system.mem_ctrls.port       453120                       # Cumulative packet size per connected master and slave (bytes)
system.membus.pkt_size::total                  453120                       # Cumulative packet size per connected master and slave (bytes)
system.membus.snoops                                0                       # Total snoops (count)
system.membus.snoopTraffic                          0                       # Total snoop traffic (bytes)
system.membus.snoop_fanout::samples              1770                       # Request fanout histogram
system.membus.snoop_fanout::mean                    0                       # Request fanout histogram
system.membus.snoop_fanout::stdev                   0                       # Request fanout histogram
system.membus.snoop_fanout::underflows              0      0.00%      0.00% # Request fanout histogram
system.membus.snoop_fanout::0                    1770    100.00%    100.00% # Request fanout histogram
system.membus.snoop_fanout::1                       0      0.00%    100.00% # Request fanout histogram
system.membus.snoop_fanout::overflows               0      0.00%    100.00% # Request fanout histogram
system.membus.snoop_fanout::min_value               0                       # Request fanout histogram
system.membus.snoop_fanout::max_value               0                       # Request fanout histogram
system.membus.snoop_fanout::total                1770                       # Request fanout histogram
system.membus.respLayer1.occupancy           30778250                       # Layer occupancy (ticks)
system.membus.respLayer1.utilization              0.0                       # Layer utilization (%)
system.membus.reqLayer0.occupancy             2228500                       # Layer occupancy (ticks)
system.membus.reqLayer0.utilization               0.0                       # Layer utilization (%)
system.tol2bus.pwrStateResidencyTicks::UNDEFINED  63243608000                       # Cumulative time (in ticks) in various power states
system.tol2bus.trans_dist::ReadResp             18027                       # Transaction distribution
system.tol2bus.trans_dist::WritebackDirty        22869                       # Transaction distribution
system.tol2bus.trans_dist::WritebackClean         8882                       # Transaction distribution
system.tol2bus.trans_dist::CleanEvict            2003                       # Transaction distribution
system.tol2bus.trans_dist::ReadExReq            16111                       # Transaction distribution
system.tol2bus.trans_dist::ReadExResp           16111                       # Transaction distribution
system.tol2bus.trans_dist::ReadCleanReq          9010                       # Transaction distribution
system.tol2bus.trans_dist::ReadSharedReq         9017                       # Transaction distribution
system.tol2bus.pkt_count_system.cpu.icache.mem_side::system.l2.cpu_side        26902                       # Packet count per connected master and slave (bytes)
system.tol2bus.pkt_count_system.cpu.dcache.mem_side::system.l2.cpu_side        75128                       # Packet count per connected master and slave (bytes)
system.tol2bus.pkt_count::total                102030                       # Packet count per connected master and slave (bytes)
system.tol2bus.pkt_size_system.cpu.icache.mem_side::system.l2.cpu_side      4580352                       # Cumulative packet size per connected master and slave (bytes)
system.tol2bus.pkt_size_system.cpu.dcache.mem_side::system.l2.cpu_side     12287232                       # Cumulative packet size per connected master and slave (bytes)
system.tol2bus.pkt_size::total               16867584                       # Cumulative packet size per connected master and slave (bytes)
system.tol2bus.snoops                               0                       # Total snoops (count)
system.tol2bus.snoopTraffic                         0                       # Total snoop traffic (bytes)
system.tol2bus.snoop_fanout::samples            34138                       # Request fanout histogram
system.tol2bus.snoop_fanout::mean            0.047249                       # Request fanout histogram
system.tol2bus.snoop_fanout::stdev           0.212175                       # Request fanout histogram
system.tol2bus.snoop_fanout::underflows             0      0.00%      0.00% # Request fanout histogram
system.tol2bus.snoop_fanout::0                  32525     95.28%     95.28% # Request fanout histogram
system.tol2bus.snoop_fanout::1                   1613      4.72%    100.00% # Request fanout histogram
system.tol2bus.snoop_fanout::2                      0      0.00%    100.00% # Request fanout histogram
system.tol2bus.snoop_fanout::overflows              0      0.00%    100.00% # Request fanout histogram
system.tol2bus.snoop_fanout::min_value              0                       # Request fanout histogram
system.tol2bus.snoop_fanout::max_value              1                       # Request fanout histogram
system.tol2bus.snoop_fanout::total              34138                       # Request fanout histogram
system.tol2bus.reqLayer0.occupancy          160950000                       # Layer occupancy (ticks)
system.tol2bus.reqLayer0.utilization              0.3                       # Layer utilization (%)
system.tol2bus.respLayer1.occupancy         113089972                       # Layer occupancy (ticks)
system.tol2bus.respLayer1.utilization             0.2                       # Layer utilization (%)
system.tol2bus.respLayer0.occupancy          40556976                       # Layer occupancy (ticks)
system.tol2bus.respLayer0.utilization             0.1                       # Layer utilization (%)
system.voltage_domain.voltage                       1                       # Voltage in Volts
system.clk_domain.clock                          1000                       # Clock period in ticks
system.l2.pwrStateResidencyTicks::UNDEFINED  63243608000                       # Cumulative time (in ticks) in various power states
system.l2.demand_hits::.cpu.inst                 8374                       # number of demand (read+write) hits
system.l2.demand_hits::.cpu.data                23964                       # number of demand (read+write) hits
system.l2.demand_hits::total                    32338                       # number of demand (read+write) hits
system.l2.overall_hits::.cpu.inst                8374                       # number of overall hits
system.l2.overall_hits::.cpu.data               23964                       # number of overall hits
system.l2.overall_hits::total                   32338                       # number of overall hits
system.l2.demand_misses::.cpu.inst                636                       # number of demand (read+write) misses
system.l2.demand_misses::.cpu.data               1164                       # number of demand (read+write) misses
system.l2.demand_misses::total                   1800                       # number of demand (read+write) misses
system.l2.overall_misses::.cpu.inst               636                       # number of overall misses
system.l2.overall_misses::.cpu.data              1164                       # number of overall misses
system.l2.overall_misses::total                  1800                       # number of overall misses
system.l2.demand_miss_latency::.cpu.inst     60640500                       # number of demand (read+write) miss cycles
system.l2.demand_miss_latency::.cpu.data    113673500                       # number of demand (read+write) miss cycles
system.l2.demand_miss_latency::total        174314000                       # number of demand (read+write) miss cycles
system.l2.overall_miss_latency::.cpu.inst     60640500                       # number of overall miss cycles
system.l2.overall_miss_latency::.cpu.data    113673500                       # number of overall miss cycles
system.l2.overall_miss_latency::total       174314000                       # number of overall miss cycles
system.l2.demand_accesses::.cpu.inst             9010                       # number of demand (read+write) accesses
system.l2.demand_accesses::.cpu.data            25128                       # number of demand (read+write) accesses
system.l2.demand_accesses::total                34138                       # number of demand (read+write) accesses
system.l2.overall_accesses::.cpu.inst            9010                       # number of overall (read+write) accesses
system.l2.overall_accesses::.cpu.data           25128                       # number of overall (read+write) accesses
system.l2.overall_accesses::total               34138                       # number of overall (read+write) accesses
system.l2.demand_miss_rate::.cpu.inst        0.070588                       # miss rate for demand accesses
system.l2.demand_miss_rate::.cpu.data        0.046323                       # miss rate for demand accesses
system.l2.demand_miss_rate::total            0.052727                       # miss rate for demand accesses
system.l2.overall_miss_rate::.cpu.inst       0.070588                       # miss rate for overall accesses
system.l2.overall_miss_rate::.cpu.data       0.046323                       # miss rate for overall accesses
system.l2.overall_miss_rate::total           0.052727                       # miss rate for overall accesses
system.l2.demand_avg_miss_latency::.cpu.inst 95346.698113                       # average overall miss latency
system.l2.demand_avg_miss_latency::.cpu.data 97657.646048                       # average overall miss latency
system.l2.demand_avg_miss_latency::total 96841.111111                       # average overall miss latency
system.l2.overall_avg_miss_latency::.cpu.inst 95346.698113                       # average overall miss latency
system.l2.overall_avg_miss_latency::.cpu.data 97657.646048                       # average overall miss latency
system.l2.overall_avg_miss_latency::total 96841.111111                       # average overall miss latency
system.l2.blocked_cycles::no_mshrs                  0                       # number of cycles access was blocked
system.l2.blocked_cycles::no_targets                0                       # number of cycles access was blocked
system.l2.blocked::no_mshrs                         0                       # number of cycles access was blocked
system.l2.blocked::no_targets                       0                       # number of cycles access was blocked
system.l2.avg_blocked_cycles::no_mshrs            nan                       # average number of cycles each access was blocked
system.l2.avg_blocked_cycles::no_targets          nan                       # average number of cycles each access was blocked
system.l2.demand_mshr_hits::.cpu.inst               2                       # number of demand (read+write) MSHR hits
system.l2.demand_mshr_hits::.cpu.data              28                       # number of demand (read+write) MSHR hits
system.l2.demand_mshr_hits::total                  30                       # number of demand (read+write) MSHR hits
system.l2.overall_mshr_hits::.cpu.inst              2                       # number of overall MSHR hits
system.l2.overall_mshr_hits::.cpu.data             28                       # number of overall MSHR hits
system.l2.overall_mshr_hits::total                 30                       # number of overall MSHR hits
system.l2.demand_mshr_misses::.cpu.inst           634                       # number of demand (read+write) MSHR misses
system.l2.demand_mshr_misses::.cpu.data          1136                       # number of demand (read+write) MSHR misses
system.l2.demand_mshr_misses::total              1770                       # number of demand (read+write) MSHR misses
system.l2.overall_mshr_misses::.cpu.inst          634                       # number of overall MSHR misses
system.l2.overall_mshr_misses::.cpu.data         1136                       # number of overall MSHR misses
system.l2.overall_mshr_misses::total             1770                       # number of overall MSHR misses
system.l2.demand_mshr_miss_latency::.cpu.inst     54270000                       # number of demand (read+write) MSHR miss cycles
system.l2.demand_mshr_miss_latency::.cpu.data     99936500                       # number of demand (read+write) MSHR miss cycles
system.l2.demand_mshr_miss_latency::total    154206500                       # number of demand (read+write) MSHR miss cycles
system.l2.overall_mshr_miss_latency::.cpu.inst     54270000                       # number of overall MSHR miss cycles
system.l2.overall_mshr_miss_latency::.cpu.data     99936500                       # number of overall MSHR miss cycles
system.l2.overall_mshr_miss_latency::total    154206500                       # number of overall MSHR miss cycles
system.l2.demand_mshr_miss_rate::.cpu.inst     0.070366                       # mshr miss rate for demand accesses
system.l2.demand_mshr_miss_rate::.cpu.data     0.045209                       # mshr miss rate for demand accesses
system.l2.demand_mshr_miss_rate::total       0.051848                       # mshr miss rate for demand accesses
system.l2.overall_mshr_miss_rate::.cpu.inst     0.070366                       # mshr miss rate for overall accesses
system.l2.overall_mshr_miss_rate::.cpu.data     0.045209                       # mshr miss rate for overall accesses
system.l2.overall_mshr_miss_rate::total      0.051848                       # mshr miss rate for overall accesses
system.l2.demand_avg_mshr_miss_latency::.cpu.inst 85599.369085                       # average overall mshr miss latency
system.l2.demand_avg_mshr_miss_latency::.cpu.data 87972.271127                       # average overall mshr miss latency
system.l2.demand_avg_mshr_miss_latency::total 87122.316384                       # average overall mshr miss latency
system.l2.overall_avg_mshr_miss_latency::.cpu.inst 85599.369085                       # average overall mshr miss latency
system.l2.overall_avg_mshr_miss_latency::.cpu.data 87972.271127                       # average overall mshr miss latency
system.l2.overall_avg_mshr_miss_latency::total 87122.316384                       # average overall mshr miss latency
system.l2.replacements                              0                       # number of replacements
system.l2.WritebackDirty_hits::.writebacks        22869                       # number of WritebackDirty hits
system.l2.WritebackDirty_hits::total            22869                       # number of WritebackDirty hits
system.l2.WritebackDirty_accesses::.writebacks        22869                       # number of WritebackDirty accesses(hits+misses)
system.l2.WritebackDirty_accesses::total        22869                       # number of WritebackDirty accesses(hits+misses)
system.l2.WritebackClean_hits::.writebacks         8279                       # number of WritebackClean hits
system.l2.WritebackClean_hits::total             8279                       # number of WritebackClean hits
system.l2.WritebackClean_accesses::.writebacks         8279                       # number of WritebackClean accesses(hits+misses)
system.l2.WritebackClean_accesses::total         8279                       # number of WritebackClean accesses(hits+misses)
system.l2.ReadExReq_hits::.cpu.data             15175                       # number of ReadExReq hits
system.l2.ReadExReq_hits::total                 15175                       # number of ReadExReq hits
system.l2.ReadExReq_misses::.cpu.data             936                       # number of ReadExReq misses
system.l2.ReadExReq_misses::total                 936                       # number of ReadExReq misses
system.l2.ReadExReq_miss_latency::.cpu.data     90698000                       # number of ReadExReq miss cycles
system.l2.ReadExReq_miss_latency::total      90698000                       # number of ReadExReq miss cycles
system.l2.ReadExReq_accesses::.cpu.data         16111                       # number of ReadExReq accesses(hits+misses)
system.l2.ReadExReq_accesses::total             16111                       # number of ReadExReq accesses(hits+misses)
system.l2.ReadExReq_miss_rate::.cpu.data     0.058097                       # miss rate for ReadExReq accesses
system.l2.ReadExReq_miss_rate::total         0.058097                       # miss rate for ReadExReq accesses
system.l2.ReadExReq_avg_miss_latency::.cpu.data 96899.572650                       # average ReadExReq miss latency
system.l2.ReadExReq_avg_miss_latency::total 96899.572650                       # average ReadExReq miss latency
system.l2.ReadExReq_mshr_misses::.cpu.data          936                       # number of ReadExReq MSHR misses
system.l2.ReadExReq_mshr_misses::total            936                       # number of ReadExReq MSHR misses
system.l2.ReadExReq_mshr_miss_latency::.cpu.data     81338000                       # number of ReadExReq MSHR miss cycles
system.l2.ReadExReq_mshr_miss_latency::total     81338000                       # number of ReadExReq MSHR miss cycles
system.l2.ReadExReq_mshr_miss_rate::.cpu.data     0.058097                       # mshr miss rate for ReadExReq accesses
system.l2.ReadExReq_mshr_miss_rate::total     0.058097                       # mshr miss rate for ReadExReq accesses
system.l2.ReadExReq_avg_mshr_miss_latency::.cpu.data 86899.572650                       # average ReadExReq mshr miss latency
system.l2.ReadExReq_avg_mshr_miss_latency::total 86899.572650                       # average ReadExReq mshr miss latency
system.l2.ReadCleanReq_hits::.cpu.inst           8374                       # number of ReadCleanReq hits
system.l2.ReadCleanReq_hits::total               8374                       # number of ReadCleanReq hits
system.l2.ReadCleanReq_misses::.cpu.inst          636                       # number of ReadCleanReq misses
system.l2.ReadCleanReq_misses::total              636                       # number of ReadCleanReq misses
system.l2.ReadCleanReq_miss_latency::.cpu.inst     60640500                       # number of ReadCleanReq miss cycles
system.l2.ReadCleanReq_miss_latency::total     60640500                       # number of ReadCleanReq miss cycles
system.l2.ReadCleanReq_accesses::.cpu.inst         9010                       # number of ReadCleanReq accesses(hits+misses)
system.l2.ReadCleanReq_accesses::total           9010                       # number of ReadCleanReq accesses(hits+misses)
system.l2.ReadCleanReq_miss_rate::.cpu.inst     0.070588                       # miss rate for ReadCleanReq accesses
system.l2.ReadCleanReq_miss_rate::total      0.070588                       # miss rate for ReadCleanReq accesses
system.l2.ReadCleanReq_avg_miss_latency::.cpu.inst 95346.698113                       # average ReadCleanReq miss latency
system.l2.ReadCleanReq_avg_miss_latency::total 95346.698113                       # average ReadCleanReq miss latency
system.l2.ReadCleanReq_mshr_hits::.cpu.inst            2                       # number of ReadCleanReq MSHR hits
system.l2.ReadCleanReq_mshr_hits::total             2                       # number of ReadCleanReq MSHR hits
system.l2.ReadCleanReq_mshr_misses::.cpu.inst          634                       # number of ReadCleanReq MSHR misses
system.l2.ReadCleanReq_mshr_misses::total          634                       # number of ReadCleanReq MSHR misses
system.l2.ReadCleanReq_mshr_miss_latency::.cpu.inst     54270000                       # number of ReadCleanReq MSHR miss cycles
system.l2.ReadCleanReq_mshr_miss_latency::total     54270000                       # number of ReadCleanReq MSHR miss cycles
system.l2.ReadCleanReq_mshr_miss_rate::.cpu.inst     0.070366                       # mshr miss rate for ReadCleanReq accesses
system.l2.ReadCleanReq_mshr_miss_rate::total     0.070366                       # mshr miss rate for ReadCleanReq accesses
system.l2.ReadCleanReq_avg_mshr_miss_latency::.cpu.inst 85599.369085                       # average ReadCleanReq mshr miss latency
system.l2.ReadCleanReq_avg_mshr_miss_latency::total 85599.369085                       # average ReadCleanReq mshr miss latency
system.l2.ReadSharedReq_hits::.cpu.data          8789                       # number of ReadSharedReq hits
system.l2.ReadSharedReq_hits::total              8789                       # number of ReadSharedReq hits
system.l2.ReadSharedReq_misses::.cpu.data          228                       # number of ReadSharedReq misses
system.l2.ReadSharedReq_misses::total             228                       # number of ReadSharedReq misses
system.l2.ReadSharedReq_miss_latency::.cpu.data     22975500                       # number of ReadSharedReq miss cycles
system.l2.ReadSharedReq_miss_latency::total     22975500                       # number of ReadSharedReq miss cycles
system.l2.ReadSharedReq_accesses::.cpu.data         9017                       # number of ReadSharedReq accesses(hits+misses)
system.l2.ReadSharedReq_accesses::total          9017                       # number of ReadSharedReq accesses(hits+misses)
system.l2.ReadSharedReq_miss_rate::.cpu.data     0.025286                       # miss rate for ReadSharedReq accesses
system.l2.ReadSharedReq_miss_rate::total     0.025286                       # miss rate for ReadSharedReq accesses
system.l2.ReadSharedReq_avg_miss_latency::.cpu.data 100769.736842                       # average ReadSharedReq miss latency
system.l2.ReadSharedReq_avg_miss_latency::total 100769.736842                       # average ReadSharedReq miss latency
system.l2.ReadSharedReq_mshr_hits::.cpu.data           28                       # number of ReadSharedReq MSHR hits
system.l2.ReadSharedReq_mshr_hits::total           28                       # number of ReadSharedReq MSHR hits
system.l2.ReadSharedReq_mshr_misses::.cpu.data          200                       # number of ReadSharedReq MSHR misses
system.l2.ReadSharedReq_mshr_misses::total          200                       # number of ReadSharedReq MSHR misses
system.l2.ReadSharedReq_mshr_miss_latency::.cpu.data     18598500                       # number of ReadSharedReq MSHR miss cycles
system.l2.ReadSharedReq_mshr_miss_latency::total     18598500                       # number of ReadSharedReq MSHR miss cycles
system.l2.ReadSharedReq_mshr_miss_rate::.cpu.data     0.022180                       # mshr miss rate for ReadSharedReq accesses
system.l2.ReadSharedReq_mshr_miss_rate::total     0.022180                       # mshr miss rate for ReadSharedReq accesses
system.l2.ReadSharedReq_avg_mshr_miss_latency::.cpu.data 92992.500000                       # average ReadSharedReq mshr miss latency
system.l2.ReadSharedReq_avg_mshr_miss_latency::total 92992.500000                       # average ReadSharedReq mshr miss latency
system.l2.tags.pwrStateResidencyTicks::UNDEFINED  63243608000                       # Cumulative time (in ticks) in various power states
system.l2.tags.tagsinuse                  1723.507456                       # Cycle average of tags in use
system.l2.tags.total_refs                       66262                       # Total number of references to valid blocks.
system.l2.tags.sampled_refs                      1770                       # Sample count of references to valid blocks.
system.l2.tags.avg_refs                     37.436158                       # Average number of references to valid blocks.
system.l2.tags.warmup_cycle                     92000                       # Cycle when the warmup percentage was hit.
system.l2.tags.occ_blocks::.cpu.inst       632.064972                       # Average occupied blocks per requestor
system.l2.tags.occ_blocks::.cpu.data      1091.442484                       # Average occupied blocks per requestor
system.l2.tags.occ_percent::.cpu.inst        0.077156                       # Average percentage of cache occupancy
system.l2.tags.occ_percent::.cpu.data        0.133233                       # Average percentage of cache occupancy
system.l2.tags.occ_percent::total            0.210389                       # Average percentage of cache occupancy
system.l2.tags.occ_task_id_blocks::1024          1770                       # Occupied blocks per task id
system.l2.tags.age_task_id_blocks_1024::4         1770                       # Occupied blocks per task id
system.l2.tags.occ_task_id_percent::1024     0.216064                       # Percentage of cache occupancy per task id
system.l2.tags.tag_accesses                    532106                       # Number of tag accesses
system.l2.tags.data_accesses                   532106                       # Number of data accesses
system.cpu_voltage_domain.voltage                   1                       # Voltage in Volts
system.mem_ctrls.pwrStateResidencyTicks::UNDEFINED  63243608000                       # Cumulative time (in ticks) in various power states
system.mem_ctrls.bytes_read::.cpu.inst         162304                       # Number of bytes read from this memory
system.mem_ctrls.bytes_read::.cpu.data         290816                       # Number of bytes read from this memory
system.mem_ctrls.bytes_read::total             453120                       # Number of bytes read from this memory
system.mem_ctrls.bytes_inst_read::.cpu.inst       162304                       # Number of instructions bytes read from this memory
system.mem_ctrls.bytes_inst_read::total        162304                       # Number of instructions bytes read from this memory
system.mem_ctrls.num_reads::.cpu.inst             634                       # Number of read requests responded to by this memory
system.mem_ctrls.num_reads::.cpu.data            1136                       # Number of read requests responded to by this memory
system.mem_ctrls.num_reads::total                1770                       # Number of read requests responded to by this memory
system.mem_ctrls.bw_read::.cpu.inst           2566330                       # Total read bandwidth from this memory (bytes/s)
system.mem_ctrls.bw_read::.cpu.data           4598346                       # Total read bandwidth from this memory (bytes/s)
system.mem_ctrls.bw_read::total               7164677                       # Total read bandwidth from this memory (bytes/s)
system.mem_ctrls.bw_inst_read::.cpu.inst      2566330                       # Instruction read bandwidth from this memory (bytes/s)
system.mem_ctrls.bw_inst_read::total          2566330                       # Instruction read bandwidth from this memory (bytes/s)
system.mem_ctrls.bw_total::.cpu.inst          2566330                       # Total bandwidth to/from this memory (bytes/s)
system.mem_ctrls.bw_total::.cpu.data          4598346                       # Total bandwidth to/from this memory (bytes/s)
system.mem_ctrls.bw_total::total              7164677                       # Total bandwidth to/from this memory (bytes/s)
system.mem_ctrls.avgPriority_.cpu.inst::samples      2536.00                       # Average QoS priority value for accepted requests
system.mem_ctrls.avgPriority_.cpu.data::samples      4544.00                       # Average QoS priority value for accepted requests
system.mem_ctrls.priorityMinLatency      0.000000018750                       # per QoS priority minimum request to response latency (s)
system.mem_ctrls.priorityMaxLatency      0.000000613750                       # per QoS priority maximum request to response latency (s)
system.mem_ctrls.numReadWriteTurnArounds            0                       # Number of turnarounds from READ to WRITE
system.mem_ctrls.numWriteReadTurnArounds            0                       # Number of turnarounds from WRITE to READ
system.mem_ctrls.numStayReadState               25065                       # Number of times bus staying in READ state
system.mem_ctrls.numStayWriteState                  0                       # Number of times bus staying in WRITE state
system.mem_ctrls.readReqs                        1770                       # Number of read requests accepted
system.mem_ctrls.writeReqs                          0                       # Number of write requests accepted
system.mem_ctrls.readBursts                      7080                       # Number of DRAM read bursts, including those serviced by the write queue
system.mem_ctrls.writeBursts                        0                       # Number of DRAM write bursts, including those merged in the write queue
system.mem_ctrls.servicedByWrQ                      0                       # Number of DRAM read bursts serviced by the write queue
system.mem_ctrls.mergedWrBursts                     0                       # Number of DRAM write bursts merged with an existing one
system.mem_ctrls.neitherReadNorWriteReqs            0                       # Number of requests that are neither read nor write
system.mem_ctrls.perBankRdBursts::0               452                       # Per bank write bursts
system.mem_ctrls.perBankRdBursts::1               616                       # Per bank write bursts
system.mem_ctrls.perBankRdBursts::2               616                       # Per bank write bursts
system.mem_ctrls.perBankRdBursts::3               340                       # Per bank write bursts
system.mem_ctrls.perBankRdBursts::4               412                       # Per bank write bursts
system.mem_ctrls.perBankRdBursts::5               328                       # Per bank write bursts
system.mem_ctrls.perBankRdBursts::6               316                       # Per bank write bursts
system.mem_ctrls.perBankRdBursts::7               468                       # Per bank write bursts
system.mem_ctrls.perBankRdBursts::8               308                       # Per bank write bursts
system.mem_ctrls.perBankRdBursts::9               560                       # Per bank write bursts
system.mem_ctrls.perBankRdBursts::10              476                       # Per bank write bursts
system.mem_ctrls.perBankRdBursts::11              496                       # Per bank write bursts
system.mem_ctrls.perBankRdBursts::12              384                       # Per bank write bursts
system.mem_ctrls.perBankRdBursts::13              408                       # Per bank write bursts
system.mem_ctrls.perBankRdBursts::14              400                       # Per bank write bursts
system.mem_ctrls.perBankRdBursts::15              500                       # Per bank write bursts
system.mem_ctrls.perBankWrBursts::0                 0                       # Per bank write bursts
system.mem_ctrls.perBankWrBursts::1                 0                       # Per bank write bursts
system.mem_ctrls.perBankWrBursts::2                 0                       # Per bank write bursts
system.mem_ctrls.perBankWrBursts::3                 0                       # Per bank write bursts
system.mem_ctrls.perBankWrBursts::4                 0                       # Per bank write bursts
system.mem_ctrls.perBankWrBursts::5                 0                       # Per bank write bursts
system.mem_ctrls.perBankWrBursts::6                 0                       # Per bank write bursts
system.mem_ctrls.perBankWrBursts::7                 0                       # Per bank write bursts
system.mem_ctrls.perBankWrBursts::8                 0                       # Per bank write bursts
system.mem_ctrls.perBankWrBursts::9                 0                       # Per bank write bursts
system.mem_ctrls.perBankWrBursts::10                0                       # Per bank write bursts
system.mem_ctrls.perBankWrBursts::11                0                       # Per bank write bursts
system.mem_ctrls.perBankWrBursts::12                0                       # Per bank write bursts
system.mem_ctrls.perBankWrBursts::13                0                       # Per bank write bursts
system.mem_ctrls.perBankWrBursts::14                0                       # Per bank write bursts
system.mem_ctrls.perBankWrBursts::15                0                       # Per bank write bursts
system.mem_ctrls.avgRdQLen                       4.00                       # Average read queue length when enqueuing
system.mem_ctrls.avgWrQLen                       0.00                       # Average write queue length when enqueuing
system.mem_ctrls.totQLat                    139553000                       # Total ticks spent queuing
system.mem_ctrls.totBusLat                   35400000                       # Total ticks spent in databus transfers
system.mem_ctrls.totMemAccLat               272303000                       # Total ticks spent from burst creation until serviced by the DRAM
system.mem_ctrls.avgQLat                     19710.88                       # Average queueing delay per DRAM burst
system.mem_ctrls.avgBusLat                    5000.00                       # Average bus latency per DRAM burst
system.mem_ctrls.avgMemAccLat                38460.88                       # Average memory access latency per DRAM burst
system.mem_ctrls.numRdRetry                         0                       # Number of times read queue was full causing retry
system.mem_ctrls.numWrRetry                         0                       # Number of times write queue was full causing retry
system.mem_ctrls.readRowHits                     6176                       # Number of row buffer hits during reads
system.mem_ctrls.writeRowHits                       0                       # Number of row buffer hits during writes
system.mem_ctrls.readRowHitRate                 87.23                       # Row buffer hit rate for reads
system.mem_ctrls.writeRowHitRate                  nan                       # Row buffer hit rate for writes
system.mem_ctrls.readPktSize::0                     0                       # Read request sizes (log2)
system.mem_ctrls.readPktSize::1                     0                       # Read request sizes (log2)
system.mem_ctrls.readPktSize::2                     0                       # Read request sizes (log2)
system.mem_ctrls.readPktSize::3                     0                       # Read request sizes (log2)
system.mem_ctrls.readPktSize::4                     0                       # Read request sizes (log2)
system.mem_ctrls.readPktSize::5                     0                       # Read request sizes (log2)
system.mem_ctrls.readPktSize::6                  7080                       # Read request sizes (log2)
system.mem_ctrls.writePktSize::0                    0                       # Write request sizes (log2)
system.mem_ctrls.writePktSize::1                    0                       # Write request sizes (log2)
system.mem_ctrls.writePktSize::2                    0                       # Write request sizes (log2)
system.mem_ctrls.writePktSize::3                    0                       # Write request sizes (log2)
system.mem_ctrls.writePktSize::4                    0                       # Write request sizes (log2)
system.mem_ctrls.writePktSize::5                    0                       # Write request sizes (log2)
system.mem_ctrls.writePktSize::6                    0                       # Write request sizes (log2)
system.mem_ctrls.rdQLenPdf::0                    1663                       # What read queue length does an incoming req see
system.mem_ctrls.rdQLenPdf::1                    1668                       # What read queue length does an incoming req see
system.mem_ctrls.rdQLenPdf::2                    1671                       # What read queue length does an incoming req see
system.mem_ctrls.rdQLenPdf::3                    1675                       # What read queue length does an incoming req see
system.mem_ctrls.rdQLenPdf::4                     105                       # What read queue length does an incoming req see
system.mem_ctrls.rdQLenPdf::5                     100                       # What read queue length does an incoming req see
system.mem_ctrls.rdQLenPdf::6                      97                       # What read queue length does an incoming req see
system.mem_ctrls.rdQLenPdf::7                      93                       # What read queue length does an incoming req see
system.mem_ctrls.rdQLenPdf::8                       2                       # What read queue length does an incoming req see
system.mem_ctrls.rdQLenPdf::9                       2                       # What read queue length does an incoming req see
system.mem_ctrls.rdQLenPdf::10                      2                       # What read queue length does an incoming req see
system.mem_ctrls.rdQLenPdf::11                      2                       # What read queue length does an incoming req see
system.mem_ctrls.rdQLenPdf::12                      0                       # What read queue length does an incoming req see
system.mem_ctrls.rdQLenPdf::13                      0                       # What read queue length does an incoming req see
system.mem_ctrls.rdQLenPdf::14                      0                       # What read queue length does an incoming req see
system.mem_ctrls.rdQLenPdf::15                      0                       # What read queue length does an incoming req see
system.mem_ctrls.rdQLenPdf::16                      0                       # What read queue length does an incoming req see
system.mem_ctrls.rdQLenPdf::17                      0                       # What read queue length does an incoming req see
system.mem_ctrls.rdQLenPdf::18                      0                       # What read queue length does an incoming req see
system.mem_ctrls.rdQLenPdf::19                      0                       # What read queue length does an incoming req see
system.mem_ctrls.rdQLenPdf::20                      0                       # What read queue length does an incoming req see
system.mem_ctrls.rdQLenPdf::21                      0                       # What read queue length does an incoming req see
system.mem_ctrls.rdQLenPdf::22                      0                       # What read queue length does an incoming req see
system.mem_ctrls.rdQLenPdf::23                      0                       # What read queue length does an incoming req see
system.mem_ctrls.rdQLenPdf::24                      0                       # What read queue length does an incoming req see
system.mem_ctrls.rdQLenPdf::25                      0                       # What read queue length does an incoming req see
system.mem_ctrls.rdQLenPdf::26                      0                       # What read queue length does an incoming req see
system.mem_ctrls.rdQLenPdf::27                      0                       # What read queue length does an incoming req see
system.mem_ctrls.rdQLenPdf::28                      0                       # What read queue length does an incoming req see
system.mem_ctrls.rdQLenPdf::29                      0                       # What read queue length does an incoming req see
system.mem_ctrls.rdQLenPdf::30                      0                       # What read queue length does an incoming req see
system.mem_ctrls.rdQLenPdf::31                      0                       # What read queue length does an incoming req see
system.mem_ctrls.wrQLenPdf::0                       0                       # What write queue length does an incoming req see
system.mem_ctrls.wrQLenPdf::1                       0                       # What write queue length does an incoming req see
system.mem_ctrls.wrQLenPdf::2                       0                       # What write queue length does an incoming req see
system.mem_ctrls.wrQLenPdf::3                       0                       # What write queue length does an incoming req see
system.mem_ctrls.wrQLenPdf::4                       0                       # What write queue length does an incoming req see
system.mem_ctrls.wrQLenPdf::5                       0                       # What write queue length does an incoming req see
system.mem_ctrls.wrQLenPdf::6                       0                       # What write queue length does an incoming req see
system.mem_ctrls.wrQLenPdf::7                       0                       # What write queue length does an incoming req see
system.mem_ctrls.wrQLenPdf::8                       0                       # What write queue length does an incoming req see
system.mem_ctrls.wrQLenPdf::9                       0                       # What write queue length does an incoming req see
system.mem_ctrls.wrQLenPdf::10                      0                       # What write queue length does an incoming req see
system.mem_ctrls.wrQLenPdf::11                      0                       # What write queue length does an incoming req see
system.mem_ctrls.wrQLenPdf::12                      0                       # What write queue length does an incoming req see
system.mem_ctrls.wrQLenPdf::13                      0                       # What write queue length does an incoming req see
system.mem_ctrls.wrQLenPdf::14                      0                       # What write queue length does an incoming req see
system.mem_ctrls.wrQLenPdf::15                      0                       # What write queue length does an incoming req see
system.mem_ctrls.wrQLenPdf::16                      0                       # What write queue length does an incoming req see
system.mem_ctrls.wrQLenPdf::17                      0                       # What write queue length does an incoming req see
system.mem_ctrls.wrQLenPdf::18                      0                       # What write queue length does an incoming req see
system.mem_ctrls.wrQLenPdf::19                      0                       # What write queue length does an incoming req see
system.mem_ctrls.wrQLenPdf::20                      0                       # What write queue length does an incoming req see
system.mem_ctrls.wrQLenPdf::21                      0                       # What write queue length does an incoming req see
system.mem_ctrls.wrQLenPdf::22                      0                       # What write queue length does an incoming req see
system.mem_ctrls.wrQLenPdf::23                      0                       # What write queue length does an incoming req see
system.mem_ctrls.wrQLenPdf::24                      0                       # What write queue length does an incoming req see
system.mem_ctrls.wrQLenPdf::25                      0                       # What write queue length does an incoming req see
system.mem_ctrls.wrQLenPdf::26                      0                       # What write queue length does an incoming req see
system.mem_ctrls.wrQLenPdf::27                      0                       # What write queue length does an incoming req see
system.mem_ctrls.wrQLenPdf::28                      0                       # What write queue length does an incoming req see
system.mem_ctrls.wrQLenPdf::29                      0                       # What write queue length does an incoming req see
system.mem_ctrls.wrQLenPdf::30                      0                       # What write queue length does an incoming req see
system.mem_ctrls.wrQLenPdf::31                      0                       # What write queue length does an incoming req see
system.mem_ctrls.wrQLenPdf::32                      0                       # What write queue length does an incoming req see
system.mem_ctrls.wrQLenPdf::33                      0                       # What write queue length does an incoming req see
system.mem_ctrls.wrQLenPdf::34                      0                       # What write queue length does an incoming req see
system.mem_ctrls.wrQLenPdf::35                      0                       # What write queue length does an incoming req see
system.mem_ctrls.wrQLenPdf::36                      0                       # What write queue length does an incoming req see
system.mem_ctrls.wrQLenPdf::37                      0                       # What write queue length does an incoming req see
system.mem_ctrls.wrQLenPdf::38                      0                       # What write queue length does an incoming req see
system.mem_ctrls.wrQLenPdf::39                      0                       # What write queue length does an incoming req see
system.mem_ctrls.wrQLenPdf::40                      0                       # What write queue length does an incoming req see
system.mem_ctrls.wrQLenPdf::41                      0                       # What write queue length does an incoming req see
system.mem_ctrls.wrQLenPdf::42                      0                       # What write queue length does an incoming req see
system.mem_ctrls.wrQLenPdf::43                      0                       # What write queue length does an incoming req see
system.mem_ctrls.wrQLenPdf::44                      0                       # What write queue length does an incoming req see
system.mem_ctrls.wrQLenPdf::45                      0                       # What write queue length does an incoming req see
system.mem_ctrls.wrQLenPdf::46                      0                       # What write queue length does an incoming req see
system.mem_ctrls.wrQLenPdf::47                      0                       # What write queue length does an incoming req see
system.mem_ctrls.wrQLenPdf::48                      0                       # What write queue length does an incoming req see
system.mem_ctrls.wrQLenPdf::49                      0                       # What write queue length does an incoming req see
system.mem_ctrls.wrQLenPdf::50                      0                       # What write queue length does an incoming req see
system.mem_ctrls.wrQLenPdf::51                      0                       # What write queue length does an incoming req see
system.mem_ctrls.wrQLenPdf::52                      0                       # What write queue length does an incoming req see
system.mem_ctrls.wrQLenPdf::53                      0                       # What write queue length does an incoming req see
system.mem_ctrls.wrQLenPdf::54                      0                       # What write queue length does an incoming req see
system.mem_ctrls.wrQLenPdf::55                      0                       # What write queue length does an incoming req see
system.mem_ctrls.wrQLenPdf::56                      0                       # What write queue length does an incoming req see
system.mem_ctrls.wrQLenPdf::57                      0                       # What write queue length does an incoming req see
system.mem_ctrls.wrQLenPdf::58                      0                       # What write queue length does an incoming req see
system.mem_ctrls.wrQLenPdf::59                      0                       # What write queue length does an incoming req see
system.mem_ctrls.wrQLenPdf::60                      0                       # What write queue length does an incoming req see
system.mem_ctrls.wrQLenPdf::61                      0                       # What write queue length does an incoming req see
system.mem_ctrls.wrQLenPdf::62                      0                       # What write queue length does an incoming req see
system.mem_ctrls.wrQLenPdf::63                      0                       # What write queue length does an incoming req see
system.mem_ctrls.bytesPerActivate::samples          904                       # Bytes accessed per row activation
system.mem_ctrls.bytesPerActivate::mean    501.238938                       # Bytes accessed per row activation
system.mem_ctrls.bytesPerActivate::gmean   409.501446                       # Bytes accessed per row activation
system.mem_ctrls.bytesPerActivate::stdev   333.489787                       # Bytes accessed per row activation
system.mem_ctrls.bytesPerActivate::256-383          553     61.17%     61.17% # Bytes accessed per row activation
system.mem_ctrls.bytesPerActivate::512-639           69      7.63%     68.81% # Bytes accessed per row activation
system.mem_ctrls.bytesPerActivate::768-895           49      5.42%     74.23% # Bytes accessed per row activation
system.mem_ctrls.bytesPerActivate::1024-1151          233     25.77%    100.00% # Bytes accessed per row activation
system.mem_ctrls.bytesPerActivate::total          904                       # Bytes accessed per row activation
system.mem_ctrls.bytesReadDRAM                 453120                       # Total number of bytes read from DRAM
system.mem_ctrls.bytesReadWrQ                       0                       # Total number of bytes read from write queue
system.mem_ctrls.bytesWritten                       0                       # Total number of bytes written to DRAM
system.mem_ctrls.bytesReadSys                  453120                       # Total read bytes from the system interface side
system.mem_ctrls.bytesWrittenSys                    0                       # Total written bytes from the system interface side
system.mem_ctrls.avgRdBW                         7.16                       # Average DRAM read bandwidth in MiByte/s
system.mem_ctrls.avgWrBW                         0.00                       # Average achieved write bandwidth in MiByte/s
system.mem_ctrls.avgRdBWSys                      7.16                       # Average system read bandwidth in MiByte/s
system.mem_ctrls.avgWrBWSys                      0.00                       # Average system write bandwidth in MiByte/s
system.mem_ctrls.peakBW                      12800.00                       # Theoretical peak bandwidth in MiByte/s
system.mem_ctrls.busUtil                         0.06                       # Data bus utilization in percentage
system.mem_ctrls.busUtilRead                     0.06                       # Data bus utilization in percentage for reads
system.mem_ctrls.busUtilWrite                    0.00                       # Data bus utilization in percentage for writes
system.mem_ctrls.totGap                    7872482500                       # Total gap between requests
system.mem_ctrls.avgGap                    4447730.23                       # Average gap between requests
system.mem_ctrls.masterReadBytes::.cpu.inst       162304                       # Per-master bytes read from memory
system.mem_ctrls.masterReadBytes::.cpu.data       290816                       # Per-master bytes read from memory
system.mem_ctrls.masterReadRate::.cpu.inst 2566330.497779316735                       # Per-master bytes read from memory rate (Bytes/sec)
system.mem_ctrls.masterReadRate::.cpu.data 4598346.128513097763                       # Per-master bytes read from memory rate (Bytes/sec)
system.mem_ctrls.masterReadAccesses::.cpu.inst         2536                       # Per-master read serviced memory accesses
system.mem_ctrls.masterReadAccesses::.cpu.data         4544                       # Per-master read serviced memory accesses
system.mem_ctrls.masterReadTotalLat::.cpu.inst     93702000                       # Per-master read total memory access latency
system.mem_ctrls.masterReadTotalLat::.cpu.data    178601000                       # Per-master read total memory access latency
system.mem_ctrls.masterReadAvgLat::.cpu.inst     36948.74                       # Per-master read average memory access latency
system.mem_ctrls.masterReadAvgLat::.cpu.data     39304.80                       # Per-master read average memory access latency
system.mem_ctrls.pageHitRate                    87.23                       # Row buffer hit rate, read and write combined
system.mem_ctrls.rank1.actEnergy              3512880                       # Energy for activate commands per rank (pJ)
system.mem_ctrls.rank1.preEnergy              1867140                       # Energy for precharge commands per rank (pJ)
system.mem_ctrls.rank1.readEnergy            25218480                       # Energy for read commands per rank (pJ)
system.mem_ctrls.rank1.writeEnergy                  0                       # Energy for write commands per rank (pJ)
system.mem_ctrls.rank1.refreshEnergy     4992106080.000001                       # Energy for refresh commands per rank (pJ)
[...]
system.cpu.icache.ReadReq_mshr_misses::total         9010                       # number of ReadReq MSHR misses
system.cpu.icache.ReadReq_mshr_miss_latency::.cpu.inst    171559000                       # number of ReadReq MSHR miss cycles
system.cpu.icache.ReadReq_mshr_miss_latency::total    171559000                       # number of ReadReq MSHR miss cycles
system.cpu.icache.ReadReq_mshr_miss_rate::.cpu.inst     0.000560                       # mshr miss rate for ReadReq accesses
system.cpu.icache.ReadReq_mshr_miss_rate::total     0.000560                       # mshr miss rate for ReadReq accesses
system.cpu.icache.ReadReq_avg_mshr_miss_latency::.cpu.inst 19040.954495                       # average ReadReq mshr miss latency
system.cpu.icache.ReadReq_avg_mshr_miss_latency::total 19040.954495                       # average ReadReq mshr miss latency
system.cpu.icache.tags.pwrStateResidencyTicks::UNDEFINED  63243608000                       # Cumulative time (in ticks) in various power states
system.cpu.icache.tags.tagsinuse           127.976605                       # Cycle average of tags in use
system.cpu.icache.tags.total_refs            16092215                       # Total number of references to valid blocks.
system.cpu.icache.tags.sampled_refs              9010                       # Sample count of references to valid blocks.
system.cpu.icache.tags.avg_refs           1786.039401                       # Average number of references to valid blocks.
system.cpu.icache.tags.warmup_cycle            102500                       # Cycle when the warmup percentage was hit.
system.cpu.icache.tags.occ_blocks::.cpu.inst   127.976605                       # Average occupied blocks per requestor
system.cpu.icache.tags.occ_percent::.cpu.inst     0.999817                       # Average percentage of cache occupancy
system.cpu.icache.tags.occ_percent::total     0.999817                       # Average percentage of cache occupancy
system.cpu.icache.tags.occ_task_id_blocks::1024          128                       # Occupied blocks per task id
system.cpu.icache.tags.age_task_id_blocks_1024::1           19                       # Occupied blocks per task id
system.cpu.icache.tags.age_task_id_blocks_1024::2           10                       # Occupied blocks per task id
system.cpu.icache.tags.age_task_id_blocks_1024::3            3                       # Occupied blocks per task id
system.cpu.icache.tags.age_task_id_blocks_1024::4           96                       # Occupied blocks per task id
system.cpu.icache.tags.occ_task_id_percent::1024            1                       # Percentage of cache occupancy per task id
system.cpu.icache.tags.tag_accesses          32193440                       # Number of tag accesses
system.cpu.icache.tags.data_accesses         32193440                       # Number of data accesses
system.cpu.dtb.walker.pwrStateResidencyTicks::UNDEFINED  63243608000                       # Cumulative time (in ticks) in various power states
system.cpu.dtb.stage2_mmu.stage2_tlb.walker.pwrStateResidencyTicks::UNDEFINED  63243608000                       # Cumulative time (in ticks) in various power states
system.cpu.dcache.pwrStateResidencyTicks::UNDEFINED  63243608000                       # Cumulative time (in ticks) in various power states
system.cpu.dcache.demand_hits::.cpu.data     49196300                       # number of demand (read+write) hits
system.cpu.dcache.demand_hits::total         49196300                       # number of demand (read+write) hits
system.cpu.dcache.overall_hits::.cpu.data     49212186                       # number of overall hits
system.cpu.dcache.overall_hits::total        49212186                       # number of overall hits
system.cpu.dcache.demand_misses::.cpu.data        26356                       # number of demand (read+write) misses
system.cpu.dcache.demand_misses::total          26356                       # number of demand (read+write) misses
system.cpu.dcache.overall_misses::.cpu.data        28176                       # number of overall misses
system.cpu.dcache.overall_misses::total         28176                       # number of overall misses
system.cpu.dcache.demand_miss_latency::.cpu.data    512078000                       # number of demand (read+write) miss cycles
system.cpu.dcache.demand_miss_latency::total    512078000                       # number of demand (read+write) miss cycles
system.cpu.dcache.overall_miss_latency::.cpu.data    512078000                       # number of overall miss cycles
system.cpu.dcache.overall_miss_latency::total    512078000                       # number of overall miss cycles
system.cpu.dcache.demand_accesses::.cpu.data     49222656                       # number of demand (read+write) accesses
system.cpu.dcache.demand_accesses::total     49222656                       # number of demand (read+write) accesses
system.cpu.dcache.overall_accesses::.cpu.data     49240362                       # number of overall (read+write) accesses
system.cpu.dcache.overall_accesses::total     49240362                       # number of overall (read+write) accesses
system.cpu.dcache.demand_miss_rate::.cpu.data     0.000535                       # miss rate for demand accesses
system.cpu.dcache.demand_miss_rate::total     0.000535                       # miss rate for demand accesses
system.cpu.dcache.overall_miss_rate::.cpu.data     0.000572                       # miss rate for overall accesses
system.cpu.dcache.overall_miss_rate::total     0.000572                       # miss rate for overall accesses
system.cpu.dcache.demand_avg_miss_latency::.cpu.data 19429.276066                       # average overall miss latency
system.cpu.dcache.demand_avg_miss_latency::total 19429.276066                       # average overall miss latency
system.cpu.dcache.overall_avg_miss_latency::.cpu.data 18174.261783                       # average overall miss latency
system.cpu.dcache.overall_avg_miss_latency::total 18174.261783                       # average overall miss latency
system.cpu.dcache.blocked_cycles::no_mshrs            0                       # number of cycles access was blocked
system.cpu.dcache.blocked_cycles::no_targets            0                       # number of cycles access was blocked
system.cpu.dcache.blocked::no_mshrs                 0                       # number of cycles access was blocked
system.cpu.dcache.blocked::no_targets               0                       # number of cycles access was blocked
system.cpu.dcache.avg_blocked_cycles::no_mshrs          nan                       # average number of cycles each access was blocked
system.cpu.dcache.avg_blocked_cycles::no_targets          nan                       # average number of cycles each access was blocked
system.cpu.dcache.writebacks::.writebacks        22869                       # number of writebacks
system.cpu.dcache.writebacks::total             22869                       # number of writebacks
system.cpu.dcache.demand_mshr_hits::.cpu.data         2117                       # number of demand (read+write) MSHR hits
system.cpu.dcache.demand_mshr_hits::total         2117                       # number of demand (read+write) MSHR hits
system.cpu.dcache.overall_mshr_hits::.cpu.data         2117                       # number of overall MSHR hits
system.cpu.dcache.overall_mshr_hits::total         2117                       # number of overall MSHR hits
system.cpu.dcache.demand_mshr_misses::.cpu.data        24239                       # number of demand (read+write) MSHR misses
system.cpu.dcache.demand_mshr_misses::total        24239                       # number of demand (read+write) MSHR misses
system.cpu.dcache.overall_mshr_misses::.cpu.data        25128                       # number of overall MSHR misses
system.cpu.dcache.overall_mshr_misses::total        25128                       # number of overall MSHR misses
system.cpu.dcache.demand_mshr_miss_latency::.cpu.data    396014000                       # number of demand (read+write) MSHR miss cycles
system.cpu.dcache.demand_mshr_miss_latency::total    396014000                       # number of demand (read+write) MSHR miss cycles
system.cpu.dcache.overall_mshr_miss_latency::.cpu.data    409040500                       # number of overall MSHR miss cycles
system.cpu.dcache.overall_mshr_miss_latency::total    409040500                       # number of overall MSHR miss cycles
system.cpu.dcache.demand_mshr_miss_rate::.cpu.data     0.000492                       # mshr miss rate for demand accesses
system.cpu.dcache.demand_mshr_miss_rate::total     0.000492                       # mshr miss rate for demand accesses
system.cpu.dcache.overall_mshr_miss_rate::.cpu.data     0.000510                       # mshr miss rate for overall accesses
system.cpu.dcache.overall_mshr_miss_rate::total     0.000510                       # mshr miss rate for overall accesses
system.cpu.dcache.demand_avg_mshr_miss_latency::.cpu.data 16337.885226                       # average overall mshr miss latency
system.cpu.dcache.demand_avg_mshr_miss_latency::total 16337.885226                       # average overall mshr miss latency
system.cpu.dcache.overall_avg_mshr_miss_latency::.cpu.data 16278.275231                       # average overall mshr miss latency
system.cpu.dcache.overall_avg_mshr_miss_latency::total 16278.275231                       # average overall mshr miss latency
system.cpu.dcache.replacements                  24872                       # number of replacements
system.cpu.dcache.ReadReq_hits::.cpu.data     42293598                       # number of ReadReq hits
system.cpu.dcache.ReadReq_hits::total        42293598                       # number of ReadReq hits
system.cpu.dcache.ReadReq_misses::.cpu.data         8648                       # number of ReadReq misses
system.cpu.dcache.ReadReq_misses::total          8648                       # number of ReadReq misses
system.cpu.dcache.ReadReq_miss_latency::.cpu.data    141451000                       # number of ReadReq miss cycles
system.cpu.dcache.ReadReq_miss_latency::total    141451000                       # number of ReadReq miss cycles
system.cpu.dcache.ReadReq_accesses::.cpu.data     42302246                       # number of ReadReq accesses(hits+misses)
system.cpu.dcache.ReadReq_accesses::total     42302246                       # number of ReadReq accesses(hits+misses)
system.cpu.dcache.ReadReq_miss_rate::.cpu.data     0.000204                       # miss rate for ReadReq accesses
system.cpu.dcache.ReadReq_miss_rate::total     0.000204                       # miss rate for ReadReq accesses
system.cpu.dcache.ReadReq_avg_miss_latency::.cpu.data 16356.498612                       # average ReadReq miss latency
system.cpu.dcache.ReadReq_avg_miss_latency::total 16356.498612                       # average ReadReq miss latency
system.cpu.dcache.ReadReq_mshr_hits::.cpu.data          520                       # number of ReadReq MSHR hits
system.cpu.dcache.ReadReq_mshr_hits::total          520                       # number of ReadReq MSHR hits
system.cpu.dcache.ReadReq_mshr_misses::.cpu.data         8128                       # number of ReadReq MSHR misses
system.cpu.dcache.ReadReq_mshr_misses::total         8128                       # number of ReadReq MSHR misses
system.cpu.dcache.ReadReq_mshr_miss_latency::.cpu.data    121174000                       # number of ReadReq MSHR miss cycles
system.cpu.dcache.ReadReq_mshr_miss_latency::total    121174000                       # number of ReadReq MSHR miss cycles
system.cpu.dcache.ReadReq_mshr_miss_rate::.cpu.data     0.000192                       # mshr miss rate for ReadReq accesses
system.cpu.dcache.ReadReq_mshr_miss_rate::total     0.000192                       # mshr miss rate for ReadReq accesses
system.cpu.dcache.ReadReq_avg_mshr_miss_latency::.cpu.data 14908.218504                       # average ReadReq mshr miss latency
system.cpu.dcache.ReadReq_avg_mshr_miss_latency::total 14908.218504                       # average ReadReq mshr miss latency
system.cpu.dcache.WriteReq_hits::.cpu.data      6902702                       # number of WriteReq hits
system.cpu.dcache.WriteReq_hits::total        6902702                       # number of WriteReq hits
system.cpu.dcache.WriteReq_misses::.cpu.data        17708                       # number of WriteReq misses
system.cpu.dcache.WriteReq_misses::total        17708                       # number of WriteReq misses
system.cpu.dcache.WriteReq_miss_latency::.cpu.data    370627000                       # number of WriteReq miss cycles
system.cpu.dcache.WriteReq_miss_latency::total    370627000                       # number of WriteReq miss cycles
system.cpu.dcache.WriteReq_accesses::.cpu.data      6920410                       # number of WriteReq accesses(hits+misses)
system.cpu.dcache.WriteReq_accesses::total      6920410                       # number of WriteReq accesses(hits+misses)
system.cpu.dcache.WriteReq_miss_rate::.cpu.data     0.002559                       # miss rate for WriteReq accesses
system.cpu.dcache.WriteReq_miss_rate::total     0.002559                       # miss rate for WriteReq accesses
system.cpu.dcache.WriteReq_avg_miss_latency::.cpu.data 20929.918681                       # average WriteReq miss latency
system.cpu.dcache.WriteReq_avg_miss_latency::total 20929.918681                       # average WriteReq miss latency
system.cpu.dcache.WriteReq_mshr_hits::.cpu.data         1597                       # number of WriteReq MSHR hits
system.cpu.dcache.WriteReq_mshr_hits::total         1597                       # number of WriteReq MSHR hits
system.cpu.dcache.WriteReq_mshr_misses::.cpu.data        16111                       # number of WriteReq MSHR misses
system.cpu.dcache.WriteReq_mshr_misses::total        16111                       # number of WriteReq MSHR misses
system.cpu.dcache.WriteReq_mshr_miss_latency::.cpu.data    274840000                       # number of WriteReq MSHR miss cycles
system.cpu.dcache.WriteReq_mshr_miss_latency::total    274840000                       # number of WriteReq MSHR miss cycles
system.cpu.dcache.WriteReq_mshr_miss_rate::.cpu.data     0.002328                       # mshr miss rate for WriteReq accesses
system.cpu.dcache.WriteReq_mshr_miss_rate::total     0.002328                       # mshr miss rate for WriteReq accesses
system.cpu.dcache.WriteReq_avg_mshr_miss_latency::.cpu.data 17059.152132                       # average WriteReq mshr miss latency
system.cpu.dcache.WriteReq_avg_mshr_miss_latency::total 17059.152132                       # average WriteReq mshr miss latency
system.cpu.dcache.SoftPFReq_hits::.cpu.data        15886                       # number of SoftPFReq hits
system.cpu.dcache.SoftPFReq_hits::total         15886                       # number of SoftPFReq hits
system.cpu.dcache.SoftPFReq_misses::.cpu.data         1820                       # number of SoftPFReq misses
system.cpu.dcache.SoftPFReq_misses::total         1820                       # number of SoftPFReq misses
system.cpu.dcache.SoftPFReq_accesses::.cpu.data        17706                       # number of SoftPFReq accesses(hits+misses)
system.cpu.dcache.SoftPFReq_accesses::total        17706                       # number of SoftPFReq accesses(hits+misses)
system.cpu.dcache.SoftPFReq_miss_rate::.cpu.data     0.102790                       # miss rate for SoftPFReq accesses
system.cpu.dcache.SoftPFReq_miss_rate::total     0.102790                       # miss rate for SoftPFReq accesses
system.cpu.dcache.SoftPFReq_mshr_misses::.cpu.data          889                       # number of SoftPFReq MSHR misses
system.cpu.dcache.SoftPFReq_mshr_misses::total          889                       # number of SoftPFReq MSHR misses
system.cpu.dcache.SoftPFReq_mshr_miss_latency::.cpu.data     13026500                       # number of SoftPFReq MSHR miss cycles
system.cpu.dcache.SoftPFReq_mshr_miss_latency::total     13026500                       # number of SoftPFReq MSHR miss cycles
system.cpu.dcache.SoftPFReq_mshr_miss_rate::.cpu.data     0.050209                       # mshr miss rate for SoftPFReq accesses
system.cpu.dcache.SoftPFReq_mshr_miss_rate::total     0.050209                       # mshr miss rate for SoftPFReq accesses
system.cpu.dcache.SoftPFReq_avg_mshr_miss_latency::.cpu.data 14652.980877                       # average SoftPFReq mshr miss latency
system.cpu.dcache.SoftPFReq_avg_mshr_miss_latency::total 14652.980877                       # average SoftPFReq mshr miss latency
system.cpu.dcache.LoadLockedReq_hits::.cpu.data          166                       # number of LoadLockedReq hits
system.cpu.dcache.LoadLockedReq_hits::total          166                       # number of LoadLockedReq hits
system.cpu.dcache.LoadLockedReq_accesses::.cpu.data          166                       # number of LoadLockedReq accesses(hits+misses)
system.cpu.dcache.LoadLockedReq_accesses::total          166                       # number of LoadLockedReq accesses(hits+misses)
system.cpu.dcache.StoreCondReq_hits::.cpu.data          166                       # number of StoreCondReq hits
system.cpu.dcache.StoreCondReq_hits::total          166                       # number of StoreCondReq hits
system.cpu.dcache.StoreCondReq_accesses::.cpu.data          166                       # number of StoreCondReq accesses(hits+misses)
system.cpu.dcache.StoreCondReq_accesses::total          166                       # number of StoreCondReq accesses(hits+misses)
system.cpu.dcache.tags.pwrStateResidencyTicks::UNDEFINED  63243608000                       # Cumulative time (in ticks) in various power states
system.cpu.dcache.tags.tagsinuse           255.175883                       # Cycle average of tags in use
system.cpu.dcache.tags.total_refs            49237646                       # Total number of references to valid blocks.
system.cpu.dcache.tags.sampled_refs             25128                       # Sample count of references to valid blocks.
system.cpu.dcache.tags.avg_refs           1959.473337                       # Average number of references to valid blocks.
system.cpu.dcache.tags.warmup_cycle            210500                       # Cycle when the warmup percentage was hit.
system.cpu.dcache.tags.occ_blocks::.cpu.data   255.175883                       # Average occupied blocks per requestor
system.cpu.dcache.tags.occ_percent::.cpu.data     0.996781                       # Average percentage of cache occupancy
system.cpu.dcache.tags.occ_percent::total     0.996781                       # Average percentage of cache occupancy
system.cpu.dcache.tags.occ_task_id_blocks::1024          256                       # Occupied blocks per task id
system.cpu.dcache.tags.age_task_id_blocks_1024::1            3                       # Occupied blocks per task id
system.cpu.dcache.tags.age_task_id_blocks_1024::2          163                       # Occupied blocks per task id
system.cpu.dcache.tags.age_task_id_blocks_1024::3           83                       # Occupied blocks per task id
system.cpu.dcache.tags.age_task_id_blocks_1024::4            7                       # Occupied blocks per task id
system.cpu.dcache.tags.occ_task_id_percent::1024            1                       # Percentage of cache occupancy per task id
system.cpu.dcache.tags.tag_accesses          98506516                       # Number of tag accesses
system.cpu.dcache.tags.data_accesses         98506516                       # Number of data accesses
system.cpu.itb.walker.pwrStateResidencyTicks::UNDEFINED  63243608000                       # Cumulative time (in ticks) in various power states
system.cpu.itb.stage2_mmu.stage2_tlb.walker.pwrStateResidencyTicks::UNDEFINED  63243608000                       # Cumulative time (in ticks) in various power states

---------- End Simulation Statistics   ----------
