
---------- Begin Simulation Statistics ----------
final_tick                                64492011000                       # Number of ticks from beginning of simulation (restored from checkpoints and never reset)
host_inst_rate                                 313652                       # Simulator instruction rate (inst/s)
host_mem_usage                                 694572                       # Number of bytes of host memory used
host_op_rate                                   317951                       # Simulator op (including micro ops) rate (op/s)
host_seconds                                   318.82                       # Real time elapsed on the host
host_tick_rate                              202280334                       # Simulator tick rate (ticks/s)
sim_freq                                 1000000000000                       # Frequency of simulated ticks
sim_insts                                   100000000                       # Number of instructions simulated
sim_ops                                     101370573                       # Number of ops (including micro ops) simulated
sim_seconds                                  0.064492                       # Number of seconds simulated
sim_ticks                                 64492011000                       # Number of ticks simulated
system.cpu.branchPred.BTBCorrect                    0                       # Number of correct BTB predictions (this stat may not work properly.
system.cpu.branchPred.BTBHitPct             84.462540                       # BTB Hit Percentage
system.cpu.branchPred.BTBHits                 4531830                       # Number of BTB hits
system.cpu.branchPred.BTBLookups              5365491                       # Number of BTB lookups
system.cpu.branchPred.RASInCorrect                 91                       # Number of incorrect RAS predictions.
system.cpu.branchPred.condIncorrect            381631                       # Number of conditional branches incorrect
system.cpu.branchPred.condPredicted           5695534                       # Number of conditional branches predicted
system.cpu.branchPred.indirectHits             141375                       # Number of indirect target hits.
system.cpu.branchPred.indirectLookups          764225                       # Number of indirect predictor lookups.
system.cpu.branchPred.indirectMisses           622850                       # Number of indirect misses.
system.cpu.branchPred.lookups                 7212372                       # Number of BP lookups
system.cpu.branchPred.usedRAS                  373164                       # Number of times the RAS was used to get a target.
system.cpu.branchPredindirectMispredicted        39716                       # Number of mispredicted indirect branches.
system.cpu.committedInsts                   100000000                       # Number of instructions committed
system.cpu.committedOps                     101370573                       # Number of ops (including micro ops) committed
system.cpu.cpi                               1.289840                       # CPI: cycles per instruction
system.cpu.discardedOps                       1027954                       # Number of ops (including micro ops) which were discarded before commit
system.cpu.dtb.accesses                             0                       # DTB accesses
system.cpu.dtb.align_faults                         0                       # Number of TLB faults due to alignment restrictions
system.cpu.dtb.domain_faults                        0                       # Number of TLB faults due to domain restrictions
system.cpu.dtb.flush_entries                        0                       # Number of entries that have been flushed from TLB
system.cpu.dtb.flush_tlb                            0                       # Number of times complete TLB was flushed
system.cpu.dtb.flush_tlb_asid                       0                       # Number of times TLB was flushed by ASID
system.cpu.dtb.flush_tlb_mva                        0                       # Number of times TLB was flushed by MVA
system.cpu.dtb.flush_tlb_mva_asid                   0                       # Number of times TLB was flushed by MVA & ASID
system.cpu.dtb.hits                                 0                       # DTB hits
system.cpu.dtb.inst_accesses                        0                       # ITB inst accesses
system.cpu.dtb.inst_hits                            0                       # ITB inst hits
system.cpu.dtb.inst_misses                          0                       # ITB inst misses
system.cpu.dtb.misses                               0                       # DTB misses
system.cpu.dtb.perms_faults                         0                       # Number of TLB faults due to permissions restrictions
system.cpu.dtb.prefetch_faults                      0                       # Number of TLB faults due to prefetch
system.cpu.dtb.read_accesses                        0                       # DTB read accesses
system.cpu.dtb.read_hits                            0                       # DTB read hits
system.cpu.dtb.read_misses                          0                       # DTB read misses
system.cpu.dtb.stage2_mmu.stage2_tlb.accesses            0                       # DTB accesses
system.cpu.dtb.stage2_mmu.stage2_tlb.align_faults            0                       # Number of TLB faults due to alignment restrictions
system.cpu.dtb.stage2_mmu.stage2_tlb.domain_faults            0                       # Number of TLB faults due to domain restrictions
system.cpu.dtb.stage2_mmu.stage2_tlb.flush_entries            0                       # Number of entries that have been flushed from TLB
system.cpu.dtb.stage2_mmu.stage2_tlb.flush_tlb            0                       # Number of times complete TLB was flushed
system.cpu.dtb.stage2_mmu.stage2_tlb.flush_tlb_asid            0                       # Number of times TLB was flushed by ASID
system.cpu.dtb.stage2_mmu.stage2_tlb.flush_tlb_mva            0                       # Number of times TLB was flushed by MVA
system.cpu.dtb.stage2_mmu.stage2_tlb.flush_tlb_mva_asid            0                       # Number of times TLB was flushed by MVA & ASID
system.cpu.dtb.stage2_mmu.stage2_tlb.hits            0                       # DTB hits
system.cpu.dtb.stage2_mmu.stage2_tlb.inst_accesses            0                       # ITB inst accesses
system.cpu.dtb.stage2_mmu.stage2_tlb.inst_hits            0                       # ITB inst hits
system.cpu.dtb.stage2_mmu.stage2_tlb.inst_misses            0                       # ITB inst misses
system.cpu.dtb.stage2_mmu.stage2_tlb.misses            0                       # DTB misses
system.cpu.dtb.stage2_mmu.stage2_tlb.perms_faults            0                       # Number of TLB faults due to permissions restrictions
system.cpu.dtb.stage2_mmu.stage2_tlb.prefetch_faults            0                       # Number of TLB faults due to prefetch
system.cpu.dtb.stage2_mmu.stage2_tlb.read_accesses            0                       # DTB read accesses
system.cpu.dtb.stage2_mmu.stage2_tlb.read_hits            0                       # DTB read hits
system.cpu.dtb.stage2_mmu.stage2_tlb.read_misses            0                       # DTB read misses
system.cpu.dtb.stage2_mmu.stage2_tlb.walker.walkRequestOrigin_Requested::Data            0                       # Table walker requests started/completed, data/inst
system.cpu.dtb.stage2_mmu.stage2_tlb.walker.walkRequestOrigin_Requested::Inst            0                       # Table walker requests started/completed, data/inst
system.cpu.dtb.stage2_mmu.stage2_tlb.walker.walkRequestOrigin_Requested::total            0                       # Table walker requests started/completed, data/inst
system.cpu.dtb.stage2_mmu.stage2_tlb.walker.walkRequestOrigin_Completed::Data            0                       # Table walker requests started/completed, data/inst
system.cpu.dtb.stage2_mmu.stage2_tlb.walker.walkRequestOrigin_Completed::Inst            0                       # Table walker requests started/completed, data/inst
system.cpu.dtb.stage2_mmu.stage2_tlb.walker.walkRequestOrigin_Completed::total            0                       # Table walker requests started/completed, data/inst
system.cpu.dtb.stage2_mmu.stage2_tlb.walker.walkRequestOrigin::total            0                       # Table walker requests started/completed, data/inst
system.cpu.dtb.stage2_mmu.stage2_tlb.walker.walks            0                       # Table walker walks requested
system.cpu.dtb.stage2_mmu.stage2_tlb.write_accesses            0                       # DTB write accesses
system.cpu.dtb.stage2_mmu.stage2_tlb.write_hits            0                       # DTB write hits
system.cpu.dtb.stage2_mmu.stage2_tlb.write_misses            0                       # DTB write misses
system.cpu.dtb.walker.walkRequestOrigin_Requested::Data            0                       # Table walker requests started/completed, data/inst
system.cpu.dtb.walker.walkRequestOrigin_Requested::Inst            0                       # Table walker requests started/completed, data/inst
system.cpu.dtb.walker.walkRequestOrigin_Requested::total            0                       # Table walker requests started/completed, data/inst
system.cpu.dtb.walker.walkRequestOrigin_Completed::Data            0                       # Table walker requests started/completed, data/inst
system.cpu.dtb.walker.walkRequestOrigin_Completed::Inst            0                       # Table walker requests started/completed, data/inst
system.cpu.dtb.walker.walkRequestOrigin_Completed::total            0                       # Table walker requests started/completed, data/inst
system.cpu.dtb.walker.walkRequestOrigin::total            0                       # Table walker requests started/completed, data/inst
system.cpu.dtb.walker.walks                         0                       # Table walker walks requested
system.cpu.dtb.write_accesses                       0                       # DTB write accesses
system.cpu.dtb.write_hits                           0                       # DTB write hits
system.cpu.dtb.write_misses                         0                       # DTB write misses
system.cpu.fetch2.amo_instructions                  0                       # Number of memory atomic instructions successfully decoded
system.cpu.fetch2.fp_instructions                   0                       # Number of floating point instructions successfully decoded
system.cpu.fetch2.int_instructions           47520367                       # Number of integer instructions successfully decoded
system.cpu.fetch2.load_instructions          45561947                       # Number of memory load instructions successfully decoded
system.cpu.fetch2.store_instructions          6770066                       # Number of memory store instructions successfully decoded
system.cpu.fetch2.vec_instructions                  0                       # Number of SIMD instructions successfully decoded
system.cpu.idleCycles                         5331307                       # Total number of cycles that the object has spent stopped
system.cpu.ipc                               0.775290                       # IPC: instructions per cycle
system.cpu.itb.accesses                             0                       # DTB accesses
system.cpu.itb.align_faults                         0                       # Number of TLB faults due to alignment restrictions
system.cpu.itb.domain_faults                        0                       # Number of TLB faults due to domain restrictions
system.cpu.itb.flush_entries                        0                       # Number of entries that have been flushed from TLB
system.cpu.itb.flush_tlb                            0                       # Number of times complete TLB was flushed
system.cpu.itb.flush_tlb_asid                       0                       # Number of times TLB was flushed by ASID
system.cpu.itb.flush_tlb_mva                        0                       # Number of times TLB was flushed by MVA
system.cpu.itb.flush_tlb_mva_asid                   0                       # Number of times TLB was flushed by MVA & ASID
system.cpu.itb.hits                                 0                       # DTB hits
system.cpu.itb.inst_accesses                        0                       # ITB inst accesses
system.cpu.itb.inst_hits                            0                       # ITB inst hits
system.cpu.itb.inst_misses                          0                       # ITB inst misses
system.cpu.itb.misses                               0                       # DTB misses
system.cpu.itb.perms_faults                         0                       # Number of TLB faults due to permissions restrictions
system.cpu.itb.prefetch_faults                      0                       # Number of TLB faults due to prefetch
system.cpu.itb.read_accesses                        0                       # DTB read accesses
system.cpu.itb.read_hits                            0                       # DTB read hits
system.cpu.itb.read_misses                          0                       # DTB read misses
system.cpu.itb.stage2_mmu.stage2_tlb.accesses            0                       # DTB accesses
system.cpu.itb.stage2_mmu.stage2_tlb.align_faults            0                       # Number of TLB faults due to alignment restrictions
system.cpu.itb.stage2_mmu.stage2_tlb.domain_faults            0                       # Number of TLB faults due to domain restrictions
system.cpu.itb.stage2_mmu.stage2_tlb.flush_entries            0                       # Number of entries that have been flushed from TLB
system.cpu.itb.stage2_mmu.stage2_tlb.flush_tlb            0                       # Number of times complete TLB was flushed
system.cpu.itb.stage2_mmu.stage2_tlb.flush_tlb_asid            0                       # Number of times TLB was flushed by ASID
system.cpu.itb.stage2_mmu.stage2_tlb.flush_tlb_mva            0                       # Number of times TLB was flushed by MVA
system.cpu.itb.stage2_mmu.stage2_tlb.flush_tlb_mva_asid            0                       # Number of times TLB was flushed by MVA & ASID
system.cpu.itb.stage2_mmu.stage2_tlb.hits            0                       # DTB hits
system.cpu.itb.stage2_mmu.stage2_tlb.inst_accesses            0                       # ITB inst accesses
system.cpu.itb.stage2_mmu.stage2_tlb.inst_hits            0                       # ITB inst hits
system.cpu.itb.stage2_mmu.stage2_tlb.inst_misses            0                       # ITB inst misses
system.cpu.itb.stage2_mmu.stage2_tlb.misses            0                       # DTB misses
system.cpu.itb.stage2_mmu.stage2_tlb.perms_faults            0                       # Number of TLB faults due to permissions restrictions
system.cpu.itb.stage2_mmu.stage2_tlb.prefetch_faults            0                       # Number of TLB faults due to prefetch
system.cpu.itb.stage2_mmu.stage2_tlb.read_accesses            0                       # DTB read accesses
system.cpu.itb.stage2_mmu.stage2_tlb.read_hits            0                       # DTB read hits
system.cpu.itb.stage2_mmu.stage2_tlb.read_misses            0                       # DTB read misses
system.cpu.itb.stage2_mmu.stage2_tlb.walker.walkRequestOrigin_Requested::Data            0                       # Table walker requests started/completed, data/inst
system.cpu.itb.stage2_mmu.stage2_tlb.walker.walkRequestOrigin_Requested::Inst            0                       # Table walker requests started/completed, data/inst
system.cpu.itb.stage2_mmu.stage2_tlb.walker.walkRequestOrigin_Requested::total            0                       # Table walker requests started/completed, data/inst
system.cpu.itb.stage2_mmu.stage2_tlb.walker.walkRequestOrigin_Completed::Data            0                       # Table walker requests started/completed, data/inst
system.cpu.itb.stage2_mmu.stage2_tlb.walker.walkRequestOrigin_Completed::Inst            0                       # Table walker requests started/completed, data/inst
system.cpu.itb.stage2_mmu.stage2_tlb.walker.walkRequestOrigin_Completed::total            0                       # Table walker requests started/completed, data/inst
system.cpu.itb.stage2_mmu.stage2_tlb.walker.walkRequestOrigin::total            0                       # Table walker requests started/completed, data/inst
system.cpu.itb.stage2_mmu.stage2_tlb.walker.walks            0                       # Table walker walks requested
system.cpu.itb.stage2_mmu.stage2_tlb.write_accesses            0                       # DTB write accesses
system.cpu.itb.stage2_mmu.stage2_tlb.write_hits            0                       # DTB write hits
system.cpu.itb.stage2_mmu.stage2_tlb.write_misses            0                       # DTB write misses
system.cpu.itb.walker.walkRequestOrigin_Requested::Data            0                       # Table walker requests started/completed, data/inst
system.cpu.itb.walker.walkRequestOrigin_Requested::Inst            0                       # Table walker requests started/completed, data/inst
system.cpu.itb.walker.walkRequestOrigin_Requested::total            0                       # Table walker requests started/completed, data/inst
system.cpu.itb.walker.walkRequestOrigin_Completed::Data            0                       # Table walker requests started/completed, data/inst
system.cpu.itb.walker.walkRequestOrigin_Completed::Inst            0                       # Table walker requests started/completed, data/inst
system.cpu.itb.walker.walkRequestOrigin_Completed::total            0                       # Table walker requests started/completed, data/inst
system.cpu.itb.walker.walkRequestOrigin::total            0                       # Table walker requests started/completed, data/inst
system.cpu.itb.walker.walks                         0                       # Table walker walks requested
system.cpu.itb.write_accesses                       0                       # DTB write accesses
system.cpu.itb.write_hits                           0                       # DTB write hits
system.cpu.itb.write_misses                         0                       # DTB write misses
system.cpu.numCycles                        128984022                       # number of cpu cycles simulated
system.cpu.numFetchSuspends                         0                       # Number of times Execute suspended instruction fetching
system.cpu.numWorkItemsCompleted                    0                       # number of work items this cpu completed
system.cpu.numWorkItemsStarted                      0                       # number of work items this cpu started
system.cpu.op_class_0::No_OpClass                   0      0.00%      0.00% # Class of committed instruction
system.cpu.op_class_0::IntAlu                49905942     49.23%     49.23% # Class of committed instruction
system.cpu.op_class_0::IntMult                 177470      0.18%     49.41% # Class of committed instruction
system.cpu.op_class_0::IntDiv                       0      0.00%     49.41% # Class of committed instruction
system.cpu.op_class_0::FloatAdd                     0      0.00%     49.41% # Class of committed instruction
system.cpu.op_class_0::FloatCmp                     0      0.00%     49.41% # Class of committed instruction
system.cpu.op_class_0::FloatCvt                     0      0.00%     49.41% # Class of committed instruction
system.cpu.op_class_0::FloatMult                    0      0.00%     49.41% # Class of committed instruction
system.cpu.op_class_0::FloatMultAcc                 0      0.00%     49.41% # Class of committed instruction
system.cpu.op_class_0::FloatDiv                     0      0.00%     49.41% # Class of committed instruction
system.cpu.op_class_0::FloatMisc                    0      0.00%     49.41% # Class of committed instruction
system.cpu.op_class_0::FloatSqrt                    0      0.00%     49.41% # Class of committed instruction
system.cpu.op_class_0::SimdAdd                      0      0.00%     49.41% # Class of committed instruction
system.cpu.op_class_0::SimdAddAcc                   0      0.00%     49.41% # Class of committed instruction
system.cpu.op_class_0::SimdAlu                      0      0.00%     49.41% # Class of committed instruction
system.cpu.op_class_0::SimdCmp                      0      0.00%     49.41% # Class of committed instruction
system.cpu.op_class_0::SimdCvt                      0      0.00%     49.41% # Class of committed instruction
system.cpu.op_class_0::SimdMisc                     0      0.00%     49.41% # Class of committed instruction
system.cpu.op_class_0::SimdMult                     0      0.00%     49.41% # Class of committed instruction
system.cpu.op_class_0::SimdMultAcc                  0      0.00%     49.41% # Class of committed instruction
system.cpu.op_class_0::SimdShift                    0      0.00%     49.41% # Class of committed instruction
system.cpu.op_class_0::SimdShiftAcc                 0      0.00%     49.41% # Class of committed instruction
system.cpu.op_class_0::SimdDiv                      0      0.00%     49.41% # Class of committed instruction
system.cpu.op_class_0::SimdSqrt                     0      0.00%     49.41% # Class of committed instruction
system.cpu.op_class_0::SimdFloatAdd            290681      0.29%     49.69% # Class of committed instruction
system.cpu.op_class_0::SimdFloatAlu                 0      0.00%     49.69% # Class of committed instruction
system.cpu.op_class_0::SimdFloatCmp            282654      0.28%     49.97% # Class of committed instruction
system.cpu.op_class_0::SimdFloatCvt            175620      0.17%     50.15% # Class of committed instruction
system.cpu.op_class_0::SimdFloatDiv             58978      0.06%     50.20% # Class of committed instruction
system.cpu.op_class_0::SimdFloatMisc           523798      0.52%     50.72% # Class of committed instruction
system.cpu.op_class_0::SimdFloatMult            35955      0.04%     50.76% # Class of committed instruction
system.cpu.op_class_0::SimdFloatMultAcc         11115      0.01%     50.77% # Class of committed instruction
system.cpu.op_class_0::SimdFloatSqrt                0      0.00%     50.77% # Class of committed instruction
system.cpu.op_class_0::SimdReduceAdd                0      0.00%     50.77% # Class of committed instruction
system.cpu.op_class_0::SimdReduceAlu                0      0.00%     50.77% # Class of committed instruction
system.cpu.op_class_0::SimdReduceCmp                0      0.00%     50.77% # Class of committed instruction
system.cpu.op_class_0::SimdFloatReduceAdd            0      0.00%     50.77% # Class of committed instruction
system.cpu.op_class_0::SimdFloatReduceCmp            0      0.00%     50.77% # Class of committed instruction
system.cpu.op_class_0::SimdAes                      0      0.00%     50.77% # Class of committed instruction
system.cpu.op_class_0::SimdAesMix                   0      0.00%     50.77% # Class of committed instruction
system.cpu.op_class_0::SimdSha1Hash                 0      0.00%     50.77% # Class of committed instruction
system.cpu.op_class_0::SimdSha1Hash2                0      0.00%     50.77% # Class of committed instruction
system.cpu.op_class_0::SimdSha256Hash               0      0.00%     50.77% # Class of committed instruction
system.cpu.op_class_0::SimdSha256Hash2              0      0.00%     50.77% # Class of committed instruction
system.cpu.op_class_0::SimdShaSigma2                0      0.00%     50.77% # Class of committed instruction
system.cpu.op_class_0::SimdShaSigma3                0      0.00%     50.77% # Class of committed instruction
system.cpu.op_class_0::SimdPredAlu                  0      0.00%     50.77% # Class of committed instruction
system.cpu.op_class_0::MemRead               42927776     42.35%     93.11% # Class of committed instruction
system.cpu.op_class_0::MemWrite               6980584      6.89%    100.00% # Class of committed instruction
system.cpu.op_class_0::FloatMemRead                 0      0.00%    100.00% # Class of committed instruction
system.cpu.op_class_0::FloatMemWrite                0      0.00%    100.00% # Class of committed instruction
system.cpu.op_class_0::IprAccess                    0      0.00%    100.00% # Class of committed instruction
system.cpu.op_class_0::InstPrefetch                 0      0.00%    100.00% # Class of committed instruction
system.cpu.op_class_0::total                101370573                       # Class of committed instruction
system.cpu.tickCycles                       123652715                       # Number of cycles that the object actually ticked
system.cpu.workload.numSyscalls                    32                       # Number of system calls
system.membus.snoop_filter.hit_multi_requests            0                       # Number of requests hitting in the snoop filter with multiple (>1) holders of the requested data.
system.membus.snoop_filter.hit_multi_snoops            0                       # Number of snoops hitting in the snoop filter with multiple (>1) holders of the requested data.
system.membus.snoop_filter.hit_single_requests            0                       # Number of requests hitting in the snoop filter with a single holder of the requested data.
system.membus.snoop_filter.hit_single_snoops            0                       # Number of snoops hitting in the snoop filter with a single holder of the requested data.
system.membus.snoop_filter.tot_requests          5908                       # Total number of requests made to the snoop filter.
system.membus.snoop_filter.tot_snoops               0                       # Total number of snoops made to the snoop filter.
system.tol2bus.snoop_filter.hit_multi_requests         1883                       # Number of requests hitting in the snoop filter with multiple (>1) holders of the requested data.
system.tol2bus.snoop_filter.hit_multi_snoops            0                       # Number of snoops hitting in the snoop filter with multiple (>1) holders of the requested data.
system.tol2bus.snoop_filter.hit_single_requests       146130                       # Number of requests hitting in the snoop filter with a single holder of the requested data.
system.tol2bus.snoop_filter.hit_single_snoops            0                       # Number of snoops hitting in the snoop filter with a single holder of the requested data.
system.tol2bus.snoop_filter.tot_requests       293757                       # Total number of requests made to the snoop filter.
system.tol2bus.snoop_filter.tot_snoops              0                       # Total number of snoops made to the snoop filter.
system.membus.pwrStateResidencyTicks::UNDEFINED  64492011000                       # Cumulative time (in ticks) in various power states
system.membus.trans_dist::ReadResp               2244                       # Transaction distribution
system.membus.trans_dist::ReadExReq              3664                       # Transaction distribution
system.membus.trans_dist::ReadExResp             3664                       # Transaction distribution
system.membus.trans_dist::ReadSharedReq          2244                       # Transaction distribution
system.membus.pkt_count_system.l2.mem_side::system.mem_ctrls.port        11816                       # Packet count per connected master and slave (bytes)
system.membus.pkt_count::total                  11816                       # Packet count per connected master and slave (bytes)
system.membus.pkt_size_system.l2.mem_side::system.mem_ctrls.port       378112                       # Cumulative packet size per connected master and slave (bytes)
system.membus.pkt_size::total                  378112                       # Cumulative packet size per connected master and slave (bytes)
system.membus.snoops                                0                       # Total snoops (count)
system.membus.snoopTraffic                          0                       # Total snoop traffic (bytes)
system.membus.snoop_fanout::samples              5908                       # Request fanout histogram
system.membus.snoop_fanout::mean                    0                       # Request fanout histogram
system.membus.snoop_fanout::stdev                   0                       # Request fanout histogram
system.membus.snoop_fanout::underflows              0      0.00%      0.00% # Request fanout histogram
system.membus.snoop_fanout::0                    5908    100.00%    100.00% # Request fanout histogram
system.membus.snoop_fanout::1                       0      0.00%    100.00% # Request fanout histogram
system.membus.snoop_fanout::overflows               0      0.00%    100.00% # Request fanout histogram
system.membus.snoop_fanout::min_value               0                       # Request fanout histogram
system.membus.snoop_fanout::max_value               0                       # Request fanout histogram
system.membus.snoop_fanout::total                5908                       # Request fanout histogram
system.membus.respLayer1.occupancy           31360750                       # Layer occupancy (ticks)
system.membus.respLayer1.utilization              0.0                       # Layer utilization (%)
system.membus.reqLayer0.occupancy             6764000                       # Layer occupancy (ticks)
system.membus.reqLayer0.utilization               0.0                       # Layer utilization (%)
system.tol2bus.pwrStateResidencyTicks::UNDEFINED  64492011000                       # Cumulative time (in ticks) in various power states
system.tol2bus.trans_dist::ReadResp             90470                       # Transaction distribution
system.tol2bus.trans_dist::WritebackDirty        67957                       # Transaction distribution
system.tol2bus.trans_dist::WritebackClean        75446                       # Transaction distribution
system.tol2bus.trans_dist::CleanEvict            2711                       # Transaction distribution
system.tol2bus.trans_dist::ReadExReq            57173                       # Transaction distribution
system.tol2bus.trans_dist::ReadExResp           57173                       # Transaction distribution
system.tol2bus.trans_dist::ReadCleanReq         75951                       # Transaction distribution
system.tol2bus.trans_dist::ReadSharedReq        14519                       # Transaction distribution
system.tol2bus.pkt_count_system.cpu.icache.mem_side::system.l2.cpu_side       227348                       # Packet count per connected master and slave (bytes)
system.tol2bus.pkt_count_system.cpu.dcache.mem_side::system.l2.cpu_side       214052                       # Packet count per connected master and slave (bytes)
system.tol2bus.pkt_count::total                441400                       # Packet count per connected master and slave (bytes)
system.tol2bus.pkt_size_system.cpu.icache.mem_side::system.l2.cpu_side      9689408                       # Cumulative packet size per connected master and slave (bytes)
system.tol2bus.pkt_size_system.cpu.dcache.mem_side::system.l2.cpu_side      8937536                       # Cumulative packet size per connected master and slave (bytes)
system.tol2bus.pkt_size::total               18626944                       # Cumulative packet size per connected master and slave (bytes)
system.tol2bus.snoops                               0                       # Total snoops (count)
system.tol2bus.snoopTraffic                         0                       # Total snoop traffic (bytes)
system.tol2bus.snoop_fanout::samples           147643                       # Request fanout histogram
system.tol2bus.snoop_fanout::mean            0.012862                       # Request fanout histogram
system.tol2bus.snoop_fanout::stdev           0.112680                       # Request fanout histogram
system.tol2bus.snoop_fanout::underflows             0      0.00%      0.00% # Request fanout histogram
system.tol2bus.snoop_fanout::0                 145744     98.71%     98.71% # Request fanout histogram
system.tol2bus.snoop_fanout::1                   1899      1.29%    100.00% # Request fanout histogram
system.tol2bus.snoop_fanout::2                      0      0.00%    100.00% # Request fanout histogram
system.tol2bus.snoop_fanout::overflows              0      0.00%    100.00% # Request fanout histogram
system.tol2bus.snoop_fanout::min_value              0                       # Request fanout histogram
system.tol2bus.snoop_fanout::max_value              1                       # Request fanout histogram
system.tol2bus.snoop_fanout::total             147643                       # Request fanout histogram
system.tol2bus.reqLayer0.occupancy          290281500                       # Layer occupancy (ticks)
system.tol2bus.reqLayer0.utilization              0.5                       # Layer utilization (%)
system.tol2bus.respLayer1.occupancy         107545984                       # Layer occupancy (ticks)
system.tol2bus.respLayer1.utilization             0.2                       # Layer utilization (%)
system.tol2bus.respLayer0.occupancy         113935482                       # Layer occupancy (ticks)
system.tol2bus.respLayer0.utilization             0.2                       # Layer utilization (%)
system.voltage_domain.voltage                       1                       # Voltage in Volts
system.clk_domain.clock                          1000                       # Clock period in ticks
system.l2.pwrStateResidencyTicks::UNDEFINED  64492011000                       # Cumulative time (in ticks) in various power states
system.l2.demand_hits::.cpu.inst                74306                       # number of demand (read+write) hits
system.l2.demand_hits::.cpu.data                67412                       # number of demand (read+write) hits
system.l2.demand_hits::total                   141718                       # number of demand (read+write) hits
system.l2.overall_hits::.cpu.inst               74306                       # number of overall hits
system.l2.overall_hits::.cpu.data               67412                       # number of overall hits
system.l2.overall_hits::total                  141718                       # number of overall hits
system.l2.demand_misses::.cpu.inst               1645                       # number of demand (read+write) misses
system.l2.demand_misses::.cpu.data               4280                       # number of demand (read+write) misses
system.l2.demand_misses::total                   5925                       # number of demand (read+write) misses
system.l2.overall_misses::.cpu.inst              1645                       # number of overall misses
system.l2.overall_misses::.cpu.data              4280                       # number of overall misses
system.l2.overall_misses::total                  5925                       # number of overall misses
system.l2.demand_miss_latency::.cpu.inst    123644500                       # number of demand (read+write) miss cycles
system.l2.demand_miss_latency::.cpu.data    330351500                       # number of demand (read+write) miss cycles
system.l2.demand_miss_latency::total        453996000                       # number of demand (read+write) miss cycles
system.l2.overall_miss_latency::.cpu.inst    123644500                       # number of overall miss cycles
system.l2.overall_miss_latency::.cpu.data    330351500                       # number of overall miss cycles
system.l2.overall_miss_latency::total       453996000                       # number of overall miss cycles
system.l2.demand_accesses::.cpu.inst            75951                       # number of demand (read+write) accesses
system.l2.demand_accesses::.cpu.data            71692                       # number of demand (read+write) accesses
system.l2.demand_accesses::total               147643                       # number of demand (read+write) accesses
system.l2.overall_accesses::.cpu.inst           75951                       # number of overall (read+write) accesses
system.l2.overall_accesses::.cpu.data           71692                       # number of overall (read+write) accesses
system.l2.overall_accesses::total              147643                       # number of overall (read+write) accesses
system.l2.demand_miss_rate::.cpu.inst        0.021659                       # miss rate for demand accesses
system.l2.demand_miss_rate::.cpu.data        0.059700                       # miss rate for demand accesses
system.l2.demand_miss_rate::total            0.040131                       # miss rate for demand accesses
system.l2.overall_miss_rate::.cpu.inst       0.021659                       # miss rate for overall accesses
system.l2.overall_miss_rate::.cpu.data       0.059700                       # miss rate for overall accesses
system.l2.overall_miss_rate::total           0.040131                       # miss rate for overall accesses
system.l2.demand_avg_miss_latency::.cpu.inst 75163.829787                       # average overall miss latency
system.l2.demand_avg_miss_latency::.cpu.data 77184.929907                       # average overall miss latency
system.l2.demand_avg_miss_latency::total 76623.797468                       # average overall miss latency
system.l2.overall_avg_miss_latency::.cpu.inst 75163.829787                       # average overall miss latency
system.l2.overall_avg_miss_latency::.cpu.data 77184.929907                       # average overall miss latency
system.l2.overall_avg_miss_latency::total 76623.797468                       # average overall miss latency
system.l2.blocked_cycles::no_mshrs                  0                       # number of cycles access was blocked
system.l2.blocked_cycles::no_targets                0                       # number of cycles access was blocked
system.l2.blocked::no_mshrs                         0                       # number of cycles access was blocked
system.l2.blocked::no_targets                       0                       # number of cycles access was blocked
system.l2.avg_blocked_cycles::no_mshrs            nan                       # average number of cycles each access was blocked
system.l2.avg_blocked_cycles::no_targets          nan                       # average number of cycles each access was blocked
system.l2.demand_mshr_hits::.cpu.inst               3                       # number of demand (read+write) MSHR hits
system.l2.demand_mshr_hits::.cpu.data              14                       # number of demand (read+write) MSHR hits
system.l2.demand_mshr_hits::total                  17                       # number of demand (read+write) MSHR hits
system.l2.overall_mshr_hits::.cpu.inst              3                       # number of overall MSHR hits
system.l2.overall_mshr_hits::.cpu.data             14                       # number of overall MSHR hits
system.l2.overall_mshr_hits::total                 17                       # number of overall MSHR hits
system.l2.demand_mshr_misses::.cpu.inst          1642                       # number of demand (read+write) MSHR misses
system.l2.demand_mshr_misses::.cpu.data          4266                       # number of demand (read+write) MSHR misses
system.l2.demand_mshr_misses::total              5908                       # number of demand (read+write) MSHR misses
system.l2.overall_mshr_misses::.cpu.inst         1642                       # number of overall MSHR misses
system.l2.overall_mshr_misses::.cpu.data         4266                       # number of overall MSHR misses
system.l2.overall_mshr_misses::total             5908                       # number of overall MSHR misses
system.l2.demand_mshr_miss_latency::.cpu.inst    107011000                       # number of demand (read+write) MSHR miss cycles
system.l2.demand_mshr_miss_latency::.cpu.data    286728500                       # number of demand (read+write) MSHR miss cycles
system.l2.demand_mshr_miss_latency::total    393739500                       # number of demand (read+write) MSHR miss cycles
system.l2.overall_mshr_miss_latency::.cpu.inst    107011000                       # number of overall MSHR miss cycles
system.l2.overall_mshr_miss_latency::.cpu.data    286728500                       # number of overall MSHR miss cycles
system.l2.overall_mshr_miss_latency::total    393739500                       # number of overall MSHR miss cycles
system.l2.demand_mshr_miss_rate::.cpu.inst     0.021619                       # mshr miss rate for demand accesses
system.l2.demand_mshr_miss_rate::.cpu.data     0.059505                       # mshr miss rate for demand accesses
system.l2.demand_mshr_miss_rate::total       0.040015                       # mshr miss rate for demand accesses
system.l2.overall_mshr_miss_rate::.cpu.inst     0.021619                       # mshr miss rate for overall accesses
system.l2.overall_mshr_miss_rate::.cpu.data     0.059505                       # mshr miss rate for overall accesses
system.l2.overall_mshr_miss_rate::total      0.040015                       # mshr miss rate for overall accesses
system.l2.demand_avg_mshr_miss_latency::.cpu.inst 65171.132765                       # average overall mshr miss latency
system.l2.demand_avg_mshr_miss_latency::.cpu.data 67212.494140                       # average overall mshr miss latency
system.l2.demand_avg_mshr_miss_latency::total 66645.142180                       # average overall mshr miss latency
system.l2.overall_avg_mshr_miss_latency::.cpu.inst 65171.132765                       # average overall mshr miss latency
system.l2.overall_avg_mshr_miss_latency::.cpu.data 67212.494140                       # average overall mshr miss latency
system.l2.overall_avg_mshr_miss_latency::total 66645.142180                       # average overall mshr miss latency
system.l2.replacements                              0                       # number of replacements
system.l2.WritebackDirty_hits::.writebacks        67957                       # number of WritebackDirty hits
system.l2.WritebackDirty_hits::total            67957                       # number of WritebackDirty hits
system.l2.WritebackDirty_accesses::.writebacks        67957                       # number of WritebackDirty accesses(hits+misses)
system.l2.WritebackDirty_accesses::total        67957                       # number of WritebackDirty accesses(hits+misses)
system.l2.WritebackClean_hits::.writebacks        74396                       # number of WritebackClean hits
system.l2.WritebackClean_hits::total            74396                       # number of WritebackClean hits
system.l2.WritebackClean_accesses::.writebacks        74396                       # number of WritebackClean accesses(hits+misses)
system.l2.WritebackClean_accesses::total        74396                       # number of WritebackClean accesses(hits+misses)
system.l2.ReadExReq_hits::.cpu.data             53509                       # number of ReadExReq hits
system.l2.ReadExReq_hits::total                 53509                       # number of ReadExReq hits
system.l2.ReadExReq_misses::.cpu.data            3664                       # number of ReadExReq misses
system.l2.ReadExReq_misses::total                3664                       # number of ReadExReq misses
system.l2.ReadExReq_miss_latency::.cpu.data    282735500                       # number of ReadExReq miss cycles
system.l2.ReadExReq_miss_latency::total     282735500                       # number of ReadExReq miss cycles
system.l2.ReadExReq_accesses::.cpu.data         57173                       # number of ReadExReq accesses(hits+misses)
system.l2.ReadExReq_accesses::total             57173                       # number of ReadExReq accesses(hits+misses)
system.l2.ReadExReq_miss_rate::.cpu.data     0.064086                       # miss rate for ReadExReq accesses
system.l2.ReadExReq_miss_rate::total         0.064086                       # miss rate for ReadExReq accesses
system.l2.ReadExReq_avg_miss_latency::.cpu.data 77165.802402                       # average ReadExReq miss latency
system.l2.ReadExReq_avg_miss_latency::total 77165.802402                       # average ReadExReq miss latency
system.l2.ReadExReq_mshr_misses::.cpu.data         3664                       # number of ReadExReq MSHR misses
system.l2.ReadExReq_mshr_misses::total           3664                       # number of ReadExReq MSHR misses
system.l2.ReadExReq_mshr_miss_latency::.cpu.data    246095500                       # number of ReadExReq MSHR miss cycles
system.l2.ReadExReq_mshr_miss_latency::total    246095500                       # number of ReadExReq MSHR miss cycles
system.l2.ReadExReq_mshr_miss_rate::.cpu.data     0.064086                       # mshr miss rate for ReadExReq accesses
system.l2.ReadExReq_mshr_miss_rate::total     0.064086                       # mshr miss rate for ReadExReq accesses
system.l2.ReadExReq_avg_mshr_miss_latency::.cpu.data 67165.802402                       # average ReadExReq mshr miss latency
system.l2.ReadExReq_avg_mshr_miss_latency::total 67165.802402                       # average ReadExReq mshr miss latency
system.l2.ReadCleanReq_hits::.cpu.inst          74306                       # number of ReadCleanReq hits
system.l2.ReadCleanReq_hits::total              74306                       # number of ReadCleanReq hits
system.l2.ReadCleanReq_misses::.cpu.inst         1645                       # number of ReadCleanReq misses
system.l2.ReadCleanReq_misses::total             1645                       # number of ReadCleanReq misses
system.l2.ReadCleanReq_miss_latency::.cpu.inst    123644500                       # number of ReadCleanReq miss cycles
system.l2.ReadCleanReq_miss_latency::total    123644500                       # number of ReadCleanReq miss cycles
system.l2.ReadCleanReq_accesses::.cpu.inst        75951                       # number of ReadCleanReq accesses(hits+misses)
system.l2.ReadCleanReq_accesses::total          75951                       # number of ReadCleanReq accesses(hits+misses)
system.l2.ReadCleanReq_miss_rate::.cpu.inst     0.021659                       # miss rate for ReadCleanReq accesses
system.l2.ReadCleanReq_miss_rate::total      0.021659                       # miss rate for ReadCleanReq accesses
system.l2.ReadCleanReq_avg_miss_latency::.cpu.inst 75163.829787                       # average ReadCleanReq miss latency
system.l2.ReadCleanReq_avg_miss_latency::total 75163.829787                       # average ReadCleanReq miss latency
system.l2.ReadCleanReq_mshr_hits::.cpu.inst            3                       # number of ReadCleanReq MSHR hits
system.l2.ReadCleanReq_mshr_hits::total             3                       # number of ReadCleanReq MSHR hits
system.l2.ReadCleanReq_mshr_misses::.cpu.inst         1642                       # number of ReadCleanReq MSHR misses
system.l2.ReadCleanReq_mshr_misses::total         1642                       # number of ReadCleanReq MSHR misses
system.l2.ReadCleanReq_mshr_miss_latency::.cpu.inst    107011000                       # number of ReadCleanReq MSHR miss cycles
system.l2.ReadCleanReq_mshr_miss_latency::total    107011000                       # number of ReadCleanReq MSHR miss cycles
system.l2.ReadCleanReq_mshr_miss_rate::.cpu.inst     0.021619                       # mshr miss rate for ReadCleanReq accesses
system.l2.ReadCleanReq_mshr_miss_rate::total     0.021619                       # mshr miss rate for ReadCleanReq accesses
system.l2.ReadCleanReq_avg_mshr_miss_latency::.cpu.inst 65171.132765                       # average ReadCleanReq mshr miss latency
system.l2.ReadCleanReq_avg_mshr_miss_latency::total 65171.132765                       # average ReadCleanReq mshr miss latency
system.l2.ReadSharedReq_hits::.cpu.data         13903                       # number of ReadSharedReq hits
system.l2.ReadSharedReq_hits::total             13903                       # number of ReadSharedReq hits
system.l2.ReadSharedReq_misses::.cpu.data          616                       # number of ReadSharedReq misses
system.l2.ReadSharedReq_misses::total             616                       # number of ReadSharedReq misses
system.l2.ReadSharedReq_miss_latency::.cpu.data     47616000                       # number of ReadSharedReq miss cycles
system.l2.ReadSharedReq_miss_latency::total     47616000                       # number of ReadSharedReq miss cycles
system.l2.ReadSharedReq_accesses::.cpu.data        14519                       # number of ReadSharedReq accesses(hits+misses)
system.l2.ReadSharedReq_accesses::total         14519                       # number of ReadSharedReq accesses(hits+misses)
system.l2.ReadSharedReq_miss_rate::.cpu.data     0.042427                       # miss rate for ReadSharedReq accesses
system.l2.ReadSharedReq_miss_rate::total     0.042427                       # miss rate for ReadSharedReq accesses
system.l2.ReadSharedReq_avg_miss_latency::.cpu.data 77298.701299                       # average ReadSharedReq miss latency
system.l2.ReadSharedReq_avg_miss_latency::total 77298.701299                       # average ReadSharedReq miss latency
system.l2.ReadSharedReq_mshr_hits::.cpu.data           14                       # number of ReadSharedReq MSHR hits
system.l2.ReadSharedReq_mshr_hits::total           14                       # number of ReadSharedReq MSHR hits
system.l2.ReadSharedReq_mshr_misses::.cpu.data          602                       # number of ReadSharedReq MSHR misses
system.l2.ReadSharedReq_mshr_misses::total          602                       # number of ReadSharedReq MSHR misses
system.l2.ReadSharedReq_mshr_miss_latency::.cpu.data     40633000                       # number of ReadSharedReq MSHR miss cycles
system.l2.ReadSharedReq_mshr_miss_latency::total     40633000                       # number of ReadSharedReq MSHR miss cycles
system.l2.ReadSharedReq_mshr_miss_rate::.cpu.data     0.041463                       # mshr miss rate for ReadSharedReq accesses
system.l2.ReadSharedReq_mshr_miss_rate::total     0.041463                       # mshr miss rate for ReadSharedReq accesses
system.l2.ReadSharedReq_avg_mshr_miss_latency::.cpu.data 67496.677741                       # average ReadSharedReq mshr miss latency
system.l2.ReadSharedReq_avg_mshr_miss_latency::total 67496.677741                       # average ReadSharedReq mshr miss latency
system.l2.tags.pwrStateResidencyTicks::UNDEFINED  64492011000                       # Cumulative time (in ticks) in various power states
system.l2.tags.tagsinuse                  5710.057290                       # Cycle average of tags in use
system.l2.tags.total_refs                      291857                       # Total number of references to valid blocks.
system.l2.tags.sampled_refs                      5908                       # Sample count of references to valid blocks.
system.l2.tags.avg_refs                     49.400305                       # Average number of references to valid blocks.
system.l2.tags.warmup_cycle                     77000                       # Cycle when the warmup percentage was hit.
system.l2.tags.occ_blocks::.cpu.inst      1632.945654                       # Average occupied blocks per requestor
system.l2.tags.occ_blocks::.cpu.data      4077.111636                       # Average occupied blocks per requestor
system.l2.tags.occ_percent::.cpu.inst        0.049834                       # Average percentage of cache occupancy
system.l2.tags.occ_percent::.cpu.data        0.124424                       # Average percentage of cache occupancy
system.l2.tags.occ_percent::total            0.174257                       # Average percentage of cache occupancy
system.l2.tags.occ_task_id_blocks::1024          5908                       # Occupied blocks per task id
system.l2.tags.age_task_id_blocks_1024::4         5908                       # Occupied blocks per task id
system.l2.tags.occ_task_id_percent::1024     0.180298                       # Percentage of cache occupancy per task id
system.l2.tags.tag_accesses                   2340900                       # Number of tag accesses
system.l2.tags.data_accesses                  2340900                       # Number of data accesses
system.cpu_voltage_domain.voltage                   1                       # Voltage in Volts
system.mem_ctrls.pwrStateResidencyTicks::UNDEFINED  64492011000                       # Cumulative time (in ticks) in various power states
system.mem_ctrls.bytes_read::.cpu.inst         105088                       # Number of bytes read from this memory
system.mem_ctrls.bytes_read::.cpu.data         273024                       # Number of bytes read from this memory
system.mem_ctrls.bytes_read::total             378112                       # Number of bytes read from this memory
system.mem_ctrls.bytes_inst_read::.cpu.inst       105088                       # Number of instructions bytes read from this memory
system.mem_ctrls.bytes_inst_read::total        105088                       # Number of instructions bytes read from this memory
system.mem_ctrls.num_reads::.cpu.inst            1642                       # Number of read requests responded to by this memory
system.mem_ctrls.num_reads::.cpu.data            4266                       # Number of read requests responded to by this memory
system.mem_ctrls.num_reads::total                5908                       # Number of read requests responded to by this memory
system.mem_ctrls.bw_read::.cpu.inst           1629473                       # Total read bandwidth from this memory (bytes/s)
system.mem_ctrls.bw_read::.cpu.data           4233455                       # Total read bandwidth from this memory (bytes/s)
system.mem_ctrls.bw_read::total               5862928                       # Total read bandwidth from this memory (bytes/s)
system.mem_ctrls.bw_inst_read::.cpu.inst      1629473                       # Instruction read bandwidth from this memory (bytes/s)
system.mem_ctrls.bw_inst_read::total          1629473                       # Instruction read bandwidth from this memory (bytes/s)
system.mem_ctrls.bw_total::.cpu.inst          1629473                       # Total bandwidth to/from this memory (bytes/s)
system.mem_ctrls.bw_total::.cpu.data          4233455                       # Total bandwidth to/from this memory (bytes/s)
system.mem_ctrls.bw_total::total              5862928                       # Total bandwidth to/from this memory (bytes/s)
system.mem_ctrls.avgPriority_.cpu.inst::samples      1642.00                       # Average QoS priority value for accepted requests
system.mem_ctrls.avgPriority_.cpu.data::samples      4266.00                       # Average QoS priority value for accepted requests
system.mem_ctrls.priorityMinLatency      0.000000018750                       # per QoS priority minimum request to response latency (s)
system.mem_ctrls.priorityMaxLatency      0.000000577500                       # per QoS priority maximum request to response latency (s)
system.mem_ctrls.numReadWriteTurnArounds            0                       # Number of turnarounds from READ to WRITE
system.mem_ctrls.numWriteReadTurnArounds            0                       # Number of turnarounds from WRITE to READ
system.mem_ctrls.numStayReadState               28374                       # Number of times bus staying in READ state
system.mem_ctrls.numStayWriteState                  0                       # Number of times bus staying in WRITE state
system.mem_ctrls.readReqs                        5908                       # Number of read requests accepted
system.mem_ctrls.writeReqs                          0                       # Number of write requests accepted
system.mem_ctrls.readBursts                      5908                       # Number of DRAM read bursts, including those serviced by the write queue
system.mem_ctrls.writeBursts                        0                       # Number of DRAM write bursts, including those merged in the write queue
system.mem_ctrls.servicedByWrQ                      0                       # Number of DRAM read bursts serviced by the write queue
system.mem_ctrls.mergedWrBursts                     0                       # Number of DRAM write bursts merged with an existing one
system.mem_ctrls.neitherReadNorWriteReqs            0                       # Number of requests that are neither read nor write
system.mem_ctrls.perBankRdBursts::0               379                       # Per bank write bursts
system.mem_ctrls.perBankRdBursts::1               502                       # Per bank write bursts
system.mem_ctrls.perBankRdBursts::2               469                       # Per bank write bursts
system.mem_ctrls.perBankRdBursts::3               291                       # Per bank write bursts
system.mem_ctrls.perBankRdBursts::4               330                       # Per bank write bursts
system.mem_ctrls.perBankRdBursts::5               262                       # Per bank write bursts
system.mem_ctrls.perBankRdBursts::6               247                       # Per bank write bursts
system.mem_ctrls.perBankRdBursts::7               360                       # Per bank write bursts
system.mem_ctrls.perBankRdBursts::8               295                       # Per bank write bursts
system.mem_ctrls.perBankRdBursts::9               455                       # Per bank write bursts
system.mem_ctrls.perBankRdBursts::10              423                       # Per bank write bursts
system.mem_ctrls.perBankRdBursts::11              431                       # Per bank write bursts
system.mem_ctrls.perBankRdBursts::12              341                       # Per bank write bursts
system.mem_ctrls.perBankRdBursts::13              354                       # Per bank write bursts
system.mem_ctrls.perBankRdBursts::14              352                       # Per bank write bursts
system.mem_ctrls.perBankRdBursts::15              417                       # Per bank write bursts
system.mem_ctrls.perBankWrBursts::0                 0                       # Per bank write bursts
system.mem_ctrls.perBankWrBursts::1                 0                       # Per bank write bursts
system.mem_ctrls.perBankWrBursts::2                 0                       # Per bank write bursts
system.mem_ctrls.perBankWrBursts::3                 0                       # Per bank write bursts
system.mem_ctrls.perBankWrBursts::4                 0                       # Per bank write bursts
system.mem_ctrls.perBankWrBursts::5                 0                       # Per bank write bursts
system.mem_ctrls.perBankWrBursts::6                 0                       # Per bank write bursts
system.mem_ctrls.perBankWrBursts::7                 0                       # Per bank write bursts
system.mem_ctrls.perBankWrBursts::8                 0                       # Per bank write bursts
system.mem_ctrls.perBankWrBursts::9                 0                       # Per bank write bursts
system.mem_ctrls.perBankWrBursts::10                0                       # Per bank write bursts
system.mem_ctrls.perBankWrBursts::11                0                       # Per bank write bursts
system.mem_ctrls.perBankWrBursts::12                0                       # Per bank write bursts
system.mem_ctrls.perBankWrBursts::13                0                       # Per bank write bursts
system.mem_ctrls.perBankWrBursts::14                0                       # Per bank write bursts
system.mem_ctrls.perBankWrBursts::15                0                       # Per bank write bursts
system.mem_ctrls.avgRdQLen                       1.02                       # Average read queue length when enqueuing
system.mem_ctrls.avgWrQLen                       0.00                       # Average write queue length when enqueuing
system.mem_ctrls.totQLat                     40948750                       # Total ticks spent queuing
system.mem_ctrls.totBusLat                   29540000                       # Total ticks spent in databus transfers
system.mem_ctrls.totMemAccLat               151723750                       # Total ticks spent from burst creation until serviced by the DRAM
system.mem_ctrls.avgQLat                      6931.07                       # Average queueing delay per DRAM burst
system.mem_ctrls.avgBusLat                    5000.00                       # Average bus latency per DRAM burst
system.mem_ctrls.avgMemAccLat                25681.07                       # Average memory access latency per DRAM burst
system.mem_ctrls.numRdRetry                         0                       # Number of times read queue was full causing retry
system.mem_ctrls.numWrRetry                         0                       # Number of times write queue was full causing retry
system.mem_ctrls.readRowHits                     4617                       # Number of row buffer hits during reads
system.mem_ctrls.writeRowHits                       0                       # Number of row buffer hits during writes
system.mem_ctrls.readRowHitRate                 78.15                       # Row buffer hit rate for reads
system.mem_ctrls.writeRowHitRate                  nan                       # Row buffer hit rate for writes
system.mem_ctrls.readPktSize::0                     0                       # Read request sizes (log2)
system.mem_ctrls.readPktSize::1                     0                       # Read request sizes (log2)
system.mem_ctrls.readPktSize::2                     0                       # Read request sizes (log2)
system.mem_ctrls.readPktSize::3                     0                       # Read request sizes (log2)
system.mem_ctrls.readPktSize::4                     0                       # Read request sizes (log2)
system.mem_ctrls.readPktSize::5                     0                       # Read request sizes (log2)
system.mem_ctrls.readPktSize::6                  5908                       # Read request sizes (log2)
system.mem_ctrls.writePktSize::0                    0                       # Write request sizes (log2)
system.mem_ctrls.writePktSize::1                    0                       # Write request sizes (log2)
system.mem_ctrls.writePktSize::2                    0                       # Write request sizes (log2)
system.mem_ctrls.writePktSize::3                    0                       # Write request sizes (log2)
system.mem_ctrls.writePktSize::4                    0                       # Write request sizes (log2)
system.mem_ctrls.writePktSize::5                    0                       # Write request sizes (log2)
system.mem_ctrls.writePktSize::6                    0                       # Write request sizes (log2)
system.mem_ctrls.rdQLenPdf::0                    5563                       # What read queue length does an incoming req see
system.mem_ctrls.rdQLenPdf::1                     331                       # What read queue length does an incoming req see
system.mem_ctrls.rdQLenPdf::2                      14                       # What read queue length does an incoming req see
system.mem_ctrls.rdQLenPdf::3                       0                       # What read queue length does an incoming req see
system.mem_ctrls.rdQLenPdf::4                       0                       # What read queue length does an incoming req see
system.mem_ctrls.rdQLenPdf::5                       0                       # What read queue length does an incoming req see
system.mem_ctrls.rdQLenPdf::6                       0                       # What read queue length does an incoming req see
system.mem_ctrls.rdQLenPdf::7                       0                       # What read queue length does an incoming req see
system.mem_ctrls.rdQLenPdf::8                       0                       # What read queue length does an incoming req see
system.mem_ctrls.rdQLenPdf::9                       0                       # What read queue length does an incoming req see
system.mem_ctrls.rdQLenPdf::10                      0                       # What read queue length does an incoming req see
system.mem_ctrls.rdQLenPdf::11                      0                       # What read queue length does an incoming req see
system.mem_ctrls.rdQLenPdf::12                      0                       # What read queue length does an incoming req see
system.mem_ctrls.rdQLenPdf::13                      0                       # What read queue length does an incoming req see
system.mem_ctrls.rdQLenPdf::14                      0                       # What read queue length does an incoming req see
system.mem_ctrls.rdQLenPdf::15                      0                       # What read queue length does an incoming req see
system.mem_ctrls.rdQLenPdf::16                      0                       # What read queue length does an incoming req see
system.mem_ctrls.rdQLenPdf::17                      0                       # What read queue length does an incoming req see
system.mem_ctrls.rdQLenPdf::18                      0                       # What read queue length does an incoming req see
system.mem_ctrls.rdQLenPdf::19                      0                       # What read queue length does an incoming req see
system.mem_ctrls.rdQLenPdf::20                      0                       # What read queue length does an incoming req see
system.mem_ctrls.rdQLenPdf::21                      0                       # What read queue length does an incoming req see
system.mem_ctrls.rdQLenPdf::22                      0                       # What read queue length does an incoming req see
system.mem_ctrls.rdQLenPdf::23                      0                       # What read queue length does an incoming req see
system.mem_ctrls.rdQLenPdf::24                      0                       # What read queue length does an incoming req see
system.mem_ctrls.rdQLenPdf::25                      0                       # What read queue length does an incoming req see
system.mem_ctrls.rdQLenPdf::26                      0                       # What read queue length does an incoming req see
system.mem_ctrls.rdQLenPdf::27                      0                       # What read queue length does an incoming req see
system.mem_ctrls.rdQLenPdf::28                      0                       # What read queue length does an incoming req see
system.mem_ctrls.rdQLenPdf::29                      0                       # What read queue length does an incoming req see
system.mem_ctrls.rdQLenPdf::30                      0                       # What read queue length does an incoming req see
system.mem_ctrls.rdQLenPdf::31                      0                       # What read queue length does an incoming req see
system.mem_ctrls.wrQLenPdf::0                       0                       # What write queue length does an incoming req see
system.mem_ctrls.wrQLenPdf::1                       0                       # What write queue length does an incoming req see
system.mem_ctrls.wrQLenPdf::2                       0                       # What write queue length does an incoming req see
system.mem_ctrls.wrQLenPdf::3                       0                       # What write queue length does an incoming req see
system.mem_ctrls.wrQLenPdf::4                       0                       # What write queue length does an incoming req see
system.mem_ctrls.wrQLenPdf::5                       0                       # What write queue length does an incoming req see
system.mem_ctrls.wrQLenPdf::6                       0                       # What write queue length does an incoming req see
system.mem_ctrls.wrQLenPdf::7                       0                       # What write queue length does an incoming req see
system.mem_ctrls.wrQLenPdf::8                       0                       # What write queue length does an incoming req see
system.mem_ctrls.wrQLenPdf::9                       0                       # What write queue length does an incoming req see
system.mem_ctrls.wrQLenPdf::10                      0                       # What write queue length does an incoming req see
system.mem_ctrls.wrQLenPdf::11                      0                       # What write queue length does an incoming req see
system.mem_ctrls.wrQLenPdf::12                      0                       # What write queue length does an incoming req see
system.mem_ctrls.wrQLenPdf::13                      0                       # What write queue length does an incoming req see
system.mem_ctrls.wrQLenPdf::14                      0                       # What write queue length does an incoming req see
system.mem_ctrls.wrQLenPdf::15                      0                       # What write queue length does an incoming req see
system.mem_ctrls.wrQLenPdf::16                      0                       # What write queue length does an incoming req see
system.mem_ctrls.wrQLenPdf::17                      0                       # What write queue length does an incoming req see
system.mem_ctrls.wrQLenPdf::18                      0                       # What write queue length does an incoming req see
system.mem_ctrls.wrQLenPdf::19                      0                       # What write queue length does an incoming req see
system.mem_ctrls.wrQLenPdf::20                      0                       # What write queue length does an incoming req see
system.mem_ctrls.wrQLenPdf::21                      0                       # What write queue length does an incoming req see
system.mem_ctrls.wrQLenPdf::22                      0                       # What write queue length does an incoming req see
system.mem_ctrls.wrQLenPdf::23                      0                       # What write queue length does an incoming req see
system.mem_ctrls.wrQLenPdf::24                      0                       # What write queue length does an incoming req see
system.mem_ctrls.wrQLenPdf::25                      0                       # What write queue length does an incoming req see
system.mem_ctrls.wrQLenPdf::26                      0                       # What write queue length does an incoming req see
system.mem_ctrls.wrQLenPdf::27                      0                       # What write queue length does an incoming req see
system.mem_ctrls.wrQLenPdf::28                      0                       # What write queue length does an incoming req see
system.mem_ctrls.wrQLenPdf::29                      0                       # What write queue length does an incoming req see
system.mem_ctrls.wrQLenPdf::30                      0                       # What write queue length does an incoming req see
system.mem_ctrls.wrQLenPdf::31                      0                       # What write queue length does an incoming req see
system.mem_ctrls.wrQLenPdf::32                      0                       # What write queue length does an incoming req see
system.mem_ctrls.wrQLenPdf::33                      0                       # What write queue length does an incoming req see
system.mem_ctrls.wrQLenPdf::34                      0                       # What write queue length does an incoming req see
system.mem_ctrls.wrQLenPdf::35                      0                       # What write queue length does an incoming req see
system.mem_ctrls.wrQLenPdf::36                      0                       # What write queue length does an incoming req see
system.mem_ctrls.wrQLenPdf::37                      0                       # What write queue length does an incoming req see
system.mem_ctrls.wrQLenPdf::38                      0                       # What write queue length does an incoming req see
system.mem_ctrls.wrQLenPdf::39                      0                       # What write queue length does an incoming req see
system.mem_ctrls.wrQLenPdf::40                      0                       # What write queue length does an incoming req see
system.mem_ctrls.wrQLenPdf::41                      0                       # What write queue length does an incoming req see
system.mem_ctrls.wrQLenPdf::42                      0                       # What write queue length does an incoming req see
system.mem_ctrls.wrQLenPdf::43                      0                       # What write queue length does an incoming req see
system.mem_ctrls.wrQLenPdf::44                      0                       # What write queue length does an incoming req see
system.mem_ctrls.wrQLenPdf::45                      0                       # What write queue length does an incoming req see
system.mem_ctrls.wrQLenPdf::46                      0                       # What write queue length does an incoming req see
system.mem_ctrls.wrQLenPdf::47                      0                       # What write queue length does an incoming req see
system.mem_ctrls.wrQLenPdf::48                      0                       # What write queue length does an incoming req see
system.mem_ctrls.wrQLenPdf::49                      0                       # What write queue length does an incoming req see
system.mem_ctrls.wrQLenPdf::50                      0                       # What write queue length does an incoming req see
system.mem_ctrls.wrQLenPdf::51                      0                       # What write queue length does an incoming req see
system.mem_ctrls.wrQLenPdf::52                      0                       # What write queue length does an incoming req see
system.mem_ctrls.wrQLenPdf::53                      0                       # What write queue length does an incoming req see
system.mem_ctrls.wrQLenPdf::54                      0                       # What write queue length does an incoming req see
system.mem_ctrls.wrQLenPdf::55                      0                       # What write queue length does an incoming req see
system.mem_ctrls.wrQLenPdf::56                      0                       # What write queue length does an incoming req see
system.mem_ctrls.wrQLenPdf::57                      0                       # What write queue length does an incoming req see
system.mem_ctrls.wrQLenPdf::58                      0                       # What write queue length does an incoming req see
system.mem_ctrls.wrQLenPdf::59                      0                       # What write queue length does an incoming req see
system.mem_ctrls.wrQLenPdf::60                      0                       # What write queue length does an incoming req see
system.mem_ctrls.wrQLenPdf::61                      0                       # What write queue length does an incoming req see
system.mem_ctrls.wrQLenPdf::62                      0                       # What write queue length does an incoming req see
system.mem_ctrls.wrQLenPdf::63                      0                       # What write queue length does an incoming req see
system.mem_ctrls.bytesPerActivate::samples         1291                       # Bytes accessed per row activation
system.mem_ctrls.bytesPerActivate::mean    292.883036                       # Bytes accessed per row activation
system.mem_ctrls.bytesPerActivate::gmean   196.231143                       # Bytes accessed per row activation
system.mem_ctrls.bytesPerActivate::stdev   295.824714                       # Bytes accessed per row activation
system.mem_ctrls.bytesPerActivate::0-127          307     23.78%     23.78% # Bytes accessed per row activation
system.mem_ctrls.bytesPerActivate::128-255          577     44.69%     68.47% # Bytes accessed per row activation
system.mem_ctrls.bytesPerActivate::256-383          125      9.68%     78.16% # Bytes accessed per row activation
system.mem_ctrls.bytesPerActivate::384-511           54      4.18%     82.34% # Bytes accessed per row activation
system.mem_ctrls.bytesPerActivate::512-639           36      2.79%     85.13% # Bytes accessed per row activation
system.mem_ctrls.bytesPerActivate::640-767           25      1.94%     87.06% # Bytes accessed per row activation
system.mem_ctrls.bytesPerActivate::768-895           21      1.63%     88.69% # Bytes accessed per row activation
system.mem_ctrls.bytesPerActivate::896-1023           13      1.01%     89.70% # Bytes accessed per row activation
system.mem_ctrls.bytesPerActivate::1024-1151          133     10.30%    100.00% # Bytes accessed per row activation
system.mem_ctrls.bytesPerActivate::total         1291                       # Bytes accessed per row activation
system.mem_ctrls.bytesReadDRAM                 378112                       # Total number of bytes read from DRAM
system.mem_ctrls.bytesReadWrQ                       0                       # Total number of bytes read from write queue
system.mem_ctrls.bytesWritten                       0                       # Total number of bytes written to DRAM
system.mem_ctrls.bytesReadSys                  378112                       # Total read bytes from the system interface side
system.mem_ctrls.bytesWrittenSys                    0                       # Total written bytes from the system interface side
system.mem_ctrls.avgRdBW                         5.86                       # Average DRAM read bandwidth in MiByte/s
system.mem_ctrls.avgWrBW                         0.00                       # Average achieved write bandwidth in MiByte/s
system.mem_ctrls.avgRdBWSys                      5.86                       # Average system read bandwidth in MiByte/s
system.mem_ctrls.avgWrBWSys                      0.00                       # Average system write bandwidth in MiByte/s
system.mem_ctrls.peakBW                      12800.00                       # Theoretical peak bandwidth in MiByte/s
system.mem_ctrls.busUtil                         0.05                       # Data bus utilization in percentage
system.mem_ctrls.busUtilRead                     0.05                       # Data bus utilization in percentage for reads
system.mem_ctrls.busUtilWrite                    0.00                       # Data bus utilization in percentage for writes
system.mem_ctrls.totGap                   16174747000                       # Total gap between requests
system.mem_ctrls.avgGap                    2737770.31                       # Average gap between requests
system.mem_ctrls.masterReadBytes::.cpu.inst       105088                       # Per-master bytes read from memory
system.mem_ctrls.masterReadBytes::.cpu.data       273024                       # Per-master bytes read from memory
system.mem_ctrls.masterReadRate::.cpu.inst 1629473.145131107653                       # Per-master bytes read from memory rate (Bytes/sec)
system.mem_ctrls.masterReadRate::.cpu.data 4233454.590212731622                       # Per-master bytes read from memory rate (Bytes/sec)
system.mem_ctrls.masterReadAccesses::.cpu.inst         1642                       # Per-master read serviced memory accesses
system.mem_ctrls.masterReadAccesses::.cpu.data         4266                       # Per-master read serviced memory accesses
system.mem_ctrls.masterReadTotalLat::.cpu.inst     39806750                       # Per-master read total memory access latency
system.mem_ctrls.masterReadTotalLat::.cpu.data    111917000                       # Per-master read total memory access latency
system.mem_ctrls.masterReadAvgLat::.cpu.inst     24242.84                       # Per-master read average memory access latency
system.mem_ctrls.masterReadAvgLat::.cpu.data     26234.65                       # Per-master read average memory access latency
system.mem_ctrls.pageHitRate                    78.15                       # Row buffer hit rate, read and write combined
system.mem_ctrls.rank1.actEnergy              4969440                       # Energy for activate commands per rank (pJ)
[...]
system.cpu.icache.tags.age_task_id_blocks_1024::1           23                       # Occupied blocks per task id
system.cpu.icache.tags.age_task_id_blocks_1024::2           26                       # Occupied blocks per task id
system.cpu.icache.tags.age_task_id_blocks_1024::3           19                       # Occupied blocks per task id
system.cpu.icache.tags.age_task_id_blocks_1024::4          437                       # Occupied blocks per task id
system.cpu.icache.tags.occ_task_id_percent::1024     0.986328                       # Percentage of cache occupancy per task id
system.cpu.icache.tags.tag_accesses          20771120                       # Number of tag accesses
system.cpu.icache.tags.data_accesses         20771120                       # Number of data accesses
system.cpu.dtb.walker.pwrStateResidencyTicks::UNDEFINED  64492011000                       # Cumulative time (in ticks) in various power states
system.cpu.dtb.stage2_mmu.stage2_tlb.walker.pwrStateResidencyTicks::UNDEFINED  64492011000                       # Cumulative time (in ticks) in various power states
system.cpu.dcache.pwrStateResidencyTicks::UNDEFINED  64492011000                       # Cumulative time (in ticks) in various power states
system.cpu.dcache.demand_hits::.cpu.data     49127538                       # number of demand (read+write) hits
system.cpu.dcache.demand_hits::total         49127538                       # number of demand (read+write) hits
system.cpu.dcache.overall_hits::.cpu.data     49139786                       # number of overall hits
system.cpu.dcache.overall_hits::total        49139786                       # number of overall hits
system.cpu.dcache.demand_misses::.cpu.data        74177                       # number of demand (read+write) misses
system.cpu.dcache.demand_misses::total          74177                       # number of demand (read+write) misses
system.cpu.dcache.overall_misses::.cpu.data        79632                       # number of overall misses
system.cpu.dcache.overall_misses::total         79632                       # number of overall misses
system.cpu.dcache.demand_miss_latency::.cpu.data   1407694500                       # number of demand (read+write) miss cycles
system.cpu.dcache.demand_miss_latency::total   1407694500                       # number of demand (read+write) miss cycles
system.cpu.dcache.overall_miss_latency::.cpu.data   1407694500                       # number of overall miss cycles
system.cpu.dcache.overall_miss_latency::total   1407694500                       # number of overall miss cycles
system.cpu.dcache.demand_accesses::.cpu.data     49201715                       # number of demand (read+write) accesses
system.cpu.dcache.demand_accesses::total     49201715                       # number of demand (read+write) accesses
system.cpu.dcache.overall_accesses::.cpu.data     49219418                       # number of overall (read+write) accesses
system.cpu.dcache.overall_accesses::total     49219418                       # number of overall (read+write) accesses
system.cpu.dcache.demand_miss_rate::.cpu.data     0.001508                       # miss rate for demand accesses
system.cpu.dcache.demand_miss_rate::total     0.001508                       # miss rate for demand accesses
system.cpu.dcache.overall_miss_rate::.cpu.data     0.001618                       # miss rate for overall accesses
system.cpu.dcache.overall_miss_rate::total     0.001618                       # miss rate for overall accesses
system.cpu.dcache.demand_avg_miss_latency::.cpu.data 18977.506505                       # average overall miss latency
system.cpu.dcache.demand_avg_miss_latency::total 18977.506505                       # average overall miss latency
system.cpu.dcache.overall_avg_miss_latency::.cpu.data 17677.497740                       # average overall miss latency
system.cpu.dcache.overall_avg_miss_latency::total 17677.497740                       # average overall miss latency
system.cpu.dcache.blocked_cycles::no_mshrs            0                       # number of cycles access was blocked
system.cpu.dcache.blocked_cycles::no_targets            0                       # number of cycles access was blocked
system.cpu.dcache.blocked::no_mshrs                 0                       # number of cycles access was blocked
system.cpu.dcache.blocked::no_targets               0                       # number of cycles access was blocked
system.cpu.dcache.avg_blocked_cycles::no_mshrs          nan                       # average number of cycles each access was blocked
system.cpu.dcache.avg_blocked_cycles::no_targets          nan                       # average number of cycles each access was blocked
system.cpu.dcache.writebacks::.writebacks        67957                       # number of writebacks
system.cpu.dcache.writebacks::total             67957                       # number of writebacks
system.cpu.dcache.demand_mshr_hits::.cpu.data         6059                       # number of demand (read+write) MSHR hits
system.cpu.dcache.demand_mshr_hits::total         6059                       # number of demand (read+write) MSHR hits
system.cpu.dcache.overall_mshr_hits::.cpu.data         6059                       # number of overall MSHR hits
system.cpu.dcache.overall_mshr_hits::total         6059                       # number of overall MSHR hits
system.cpu.dcache.demand_mshr_misses::.cpu.data        68118                       # number of demand (read+write) MSHR misses
system.cpu.dcache.demand_mshr_misses::total        68118                       # number of demand (read+write) MSHR misses
system.cpu.dcache.overall_mshr_misses::.cpu.data        71691                       # number of overall MSHR misses
system.cpu.dcache.overall_mshr_misses::total        71691                       # number of overall MSHR misses
system.cpu.dcache.demand_mshr_miss_latency::.cpu.data   1095997000                       # number of demand (read+write) MSHR miss cycles
system.cpu.dcache.demand_mshr_miss_latency::total   1095997000                       # number of demand (read+write) MSHR miss cycles
system.cpu.dcache.overall_mshr_miss_latency::.cpu.data   1147292000                       # number of overall MSHR miss cycles
system.cpu.dcache.overall_mshr_miss_latency::total   1147292000                       # number of overall MSHR miss cycles
system.cpu.dcache.demand_mshr_miss_rate::.cpu.data     0.001384                       # mshr miss rate for demand accesses
system.cpu.dcache.demand_mshr_miss_rate::total     0.001384                       # mshr miss rate for demand accesses
system.cpu.dcache.overall_mshr_miss_rate::.cpu.data     0.001457                       # mshr miss rate for overall accesses
system.cpu.dcache.overall_mshr_miss_rate::total     0.001457                       # mshr miss rate for overall accesses
system.cpu.dcache.demand_avg_mshr_miss_latency::.cpu.data 16089.682610                       # average overall mshr miss latency
system.cpu.dcache.demand_avg_mshr_miss_latency::total 16089.682610                       # average overall mshr miss latency
system.cpu.dcache.overall_avg_mshr_miss_latency::.cpu.data 16003.291906                       # average overall mshr miss latency
system.cpu.dcache.overall_avg_mshr_miss_latency::total 16003.291906                       # average overall mshr miss latency
system.cpu.dcache.replacements                  70668                       # number of replacements
system.cpu.dcache.ReadReq_hits::.cpu.data     42270026                       # number of ReadReq hits
system.cpu.dcache.ReadReq_hits::total        42270026                       # number of ReadReq hits
system.cpu.dcache.ReadReq_misses::.cpu.data        11279                       # number of ReadReq misses
system.cpu.dcache.ReadReq_misses::total         11279                       # number of ReadReq misses
system.cpu.dcache.ReadReq_miss_latency::.cpu.data    185376000                       # number of ReadReq miss cycles
system.cpu.dcache.ReadReq_miss_latency::total    185376000                       # number of ReadReq miss cycles
system.cpu.dcache.ReadReq_accesses::.cpu.data     42281305                       # number of ReadReq accesses(hits+misses)
system.cpu.dcache.ReadReq_accesses::total     42281305                       # number of ReadReq accesses(hits+misses)
system.cpu.dcache.ReadReq_miss_rate::.cpu.data     0.000267                       # miss rate for ReadReq accesses
system.cpu.dcache.ReadReq_miss_rate::total     0.000267                       # miss rate for ReadReq accesses
system.cpu.dcache.ReadReq_avg_miss_latency::.cpu.data 16435.499601                       # average ReadReq miss latency
system.cpu.dcache.ReadReq_avg_miss_latency::total 16435.499601                       # average ReadReq miss latency
system.cpu.dcache.ReadReq_mshr_hits::.cpu.data          334                       # number of ReadReq MSHR hits
system.cpu.dcache.ReadReq_mshr_hits::total          334                       # number of ReadReq MSHR hits
system.cpu.dcache.ReadReq_mshr_misses::.cpu.data        10945                       # number of ReadReq MSHR misses
system.cpu.dcache.ReadReq_mshr_misses::total        10945                       # number of ReadReq MSHR misses
system.cpu.dcache.ReadReq_mshr_miss_latency::.cpu.data    165437000                       # number of ReadReq MSHR miss cycles
system.cpu.dcache.ReadReq_mshr_miss_latency::total    165437000                       # number of ReadReq MSHR miss cycles
system.cpu.dcache.ReadReq_mshr_miss_rate::.cpu.data     0.000259                       # mshr miss rate for ReadReq accesses
system.cpu.dcache.ReadReq_mshr_miss_rate::total     0.000259                       # mshr miss rate for ReadReq accesses
system.cpu.dcache.ReadReq_avg_mshr_miss_latency::.cpu.data 15115.303792                       # average ReadReq mshr miss latency
system.cpu.dcache.ReadReq_avg_mshr_miss_latency::total 15115.303792                       # average ReadReq mshr miss latency
system.cpu.dcache.WriteReq_hits::.cpu.data      6857512                       # number of WriteReq hits
system.cpu.dcache.WriteReq_hits::total        6857512                       # number of WriteReq hits
system.cpu.dcache.WriteReq_misses::.cpu.data        62898                       # number of WriteReq misses
system.cpu.dcache.WriteReq_misses::total        62898                       # number of WriteReq misses
system.cpu.dcache.WriteReq_miss_latency::.cpu.data   1222318500                       # number of WriteReq miss cycles
system.cpu.dcache.WriteReq_miss_latency::total   1222318500                       # number of WriteReq miss cycles
system.cpu.dcache.WriteReq_accesses::.cpu.data      6920410                       # number of WriteReq accesses(hits+misses)
system.cpu.dcache.WriteReq_accesses::total      6920410                       # number of WriteReq accesses(hits+misses)
system.cpu.dcache.WriteReq_miss_rate::.cpu.data     0.009089                       # miss rate for WriteReq accesses
system.cpu.dcache.WriteReq_miss_rate::total     0.009089                       # miss rate for WriteReq accesses
system.cpu.dcache.WriteReq_avg_miss_latency::.cpu.data 19433.344462                       # average WriteReq miss latency
system.cpu.dcache.WriteReq_avg_miss_latency::total 19433.344462                       # average WriteReq miss latency
system.cpu.dcache.WriteReq_mshr_hits::.cpu.data         5725                       # number of WriteReq MSHR hits
system.cpu.dcache.WriteReq_mshr_hits::total         5725                       # number of WriteReq MSHR hits
system.cpu.dcache.WriteReq_mshr_misses::.cpu.data        57173                       # number of WriteReq MSHR misses
system.cpu.dcache.WriteReq_mshr_misses::total        57173                       # number of WriteReq MSHR misses
system.cpu.dcache.WriteReq_mshr_miss_latency::.cpu.data    930560000                       # number of WriteReq MSHR miss cycles
system.cpu.dcache.WriteReq_mshr_miss_latency::total    930560000                       # number of WriteReq MSHR miss cycles
system.cpu.dcache.WriteReq_mshr_miss_rate::.cpu.data     0.008262                       # mshr miss rate for WriteReq accesses
system.cpu.dcache.WriteReq_mshr_miss_rate::total     0.008262                       # mshr miss rate for WriteReq accesses
system.cpu.dcache.WriteReq_avg_mshr_miss_latency::.cpu.data 16276.214297                       # average WriteReq mshr miss latency
system.cpu.dcache.WriteReq_avg_mshr_miss_latency::total 16276.214297                       # average WriteReq mshr miss latency
system.cpu.dcache.SoftPFReq_hits::.cpu.data        12248                       # number of SoftPFReq hits
system.cpu.dcache.SoftPFReq_hits::total         12248                       # number of SoftPFReq hits
system.cpu.dcache.SoftPFReq_misses::.cpu.data         5455                       # number of SoftPFReq misses
system.cpu.dcache.SoftPFReq_misses::total         5455                       # number of SoftPFReq misses
system.cpu.dcache.SoftPFReq_accesses::.cpu.data        17703                       # number of SoftPFReq accesses(hits+misses)
system.cpu.dcache.SoftPFReq_accesses::total        17703                       # number of SoftPFReq accesses(hits+misses)
system.cpu.dcache.SoftPFReq_miss_rate::.cpu.data     0.308140                       # miss rate for SoftPFReq accesses
system.cpu.dcache.SoftPFReq_miss_rate::total     0.308140                       # miss rate for SoftPFReq accesses
system.cpu.dcache.SoftPFReq_mshr_misses::.cpu.data         3573                       # number of SoftPFReq MSHR misses
system.cpu.dcache.SoftPFReq_mshr_misses::total         3573                       # number of SoftPFReq MSHR misses
system.cpu.dcache.SoftPFReq_mshr_miss_latency::.cpu.data     51295000                       # number of SoftPFReq MSHR miss cycles
system.cpu.dcache.SoftPFReq_mshr_miss_latency::total     51295000                       # number of SoftPFReq MSHR miss cycles
system.cpu.dcache.SoftPFReq_mshr_miss_rate::.cpu.data     0.201830                       # mshr miss rate for SoftPFReq accesses
system.cpu.dcache.SoftPFReq_mshr_miss_rate::total     0.201830                       # mshr miss rate for SoftPFReq accesses
system.cpu.dcache.SoftPFReq_avg_mshr_miss_latency::.cpu.data 14356.283235                       # average SoftPFReq mshr miss latency
system.cpu.dcache.SoftPFReq_avg_mshr_miss_latency::total 14356.283235                       # average SoftPFReq mshr miss latency
system.cpu.dcache.LoadLockedReq_hits::.cpu.data          165                       # number of LoadLockedReq hits
system.cpu.dcache.LoadLockedReq_hits::total          165                       # number of LoadLockedReq hits
system.cpu.dcache.LoadLockedReq_misses::.cpu.data            1                       # number of LoadLockedReq misses
system.cpu.dcache.LoadLockedReq_misses::total            1                       # number of LoadLockedReq misses
system.cpu.dcache.LoadLockedReq_miss_latency::.cpu.data       100500                       # number of LoadLockedReq miss cycles
system.cpu.dcache.LoadLockedReq_miss_latency::total       100500                       # number of LoadLockedReq miss cycles
system.cpu.dcache.LoadLockedReq_accesses::.cpu.data          166                       # number of LoadLockedReq accesses(hits+misses)
system.cpu.dcache.LoadLockedReq_accesses::total          166                       # number of LoadLockedReq accesses(hits+misses)
system.cpu.dcache.LoadLockedReq_miss_rate::.cpu.data     0.006024                       # miss rate for LoadLockedReq accesses
system.cpu.dcache.LoadLockedReq_miss_rate::total     0.006024                       # miss rate for LoadLockedReq accesses
system.cpu.dcache.LoadLockedReq_avg_miss_latency::.cpu.data       100500                       # average LoadLockedReq miss latency
system.cpu.dcache.LoadLockedReq_avg_miss_latency::total       100500                       # average LoadLockedReq miss latency
system.cpu.dcache.LoadLockedReq_mshr_misses::.cpu.data            1                       # number of LoadLockedReq MSHR misses
system.cpu.dcache.LoadLockedReq_mshr_misses::total            1                       # number of LoadLockedReq MSHR misses
system.cpu.dcache.LoadLockedReq_mshr_miss_latency::.cpu.data        99500                       # number of LoadLockedReq MSHR miss cycles
system.cpu.dcache.LoadLockedReq_mshr_miss_latency::total        99500                       # number of LoadLockedReq MSHR miss cycles
system.cpu.dcache.LoadLockedReq_mshr_miss_rate::.cpu.data     0.006024                       # mshr miss rate for LoadLockedReq accesses
system.cpu.dcache.LoadLockedReq_mshr_miss_rate::total     0.006024                       # mshr miss rate for LoadLockedReq accesses
system.cpu.dcache.LoadLockedReq_avg_mshr_miss_latency::.cpu.data        99500                       # average LoadLockedReq mshr miss latency
system.cpu.dcache.LoadLockedReq_avg_mshr_miss_latency::total        99500                       # average LoadLockedReq mshr miss latency
system.cpu.dcache.StoreCondReq_hits::.cpu.data          166                       # number of StoreCondReq hits
system.cpu.dcache.StoreCondReq_hits::total          166                       # number of StoreCondReq hits
system.cpu.dcache.StoreCondReq_accesses::.cpu.data          166                       # number of StoreCondReq accesses(hits+misses)
system.cpu.dcache.StoreCondReq_accesses::total          166                       # number of StoreCondReq accesses(hits+misses)
system.cpu.dcache.tags.pwrStateResidencyTicks::UNDEFINED  64492011000                       # Cumulative time (in ticks) in various power states
system.cpu.dcache.tags.tagsinuse          1014.842994                       # Cycle average of tags in use
system.cpu.dcache.tags.total_refs            49211809                       # Total number of references to valid blocks.
system.cpu.dcache.tags.sampled_refs             71692                       # Sample count of references to valid blocks.
system.cpu.dcache.tags.avg_refs            686.433758                       # Average number of references to valid blocks.
system.cpu.dcache.tags.warmup_cycle            176500                       # Cycle when the warmup percentage was hit.
system.cpu.dcache.tags.occ_blocks::.cpu.data  1014.842994                       # Average occupied blocks per requestor
system.cpu.dcache.tags.occ_percent::.cpu.data     0.991058                       # Average percentage of cache occupancy
system.cpu.dcache.tags.occ_percent::total     0.991058                       # Average percentage of cache occupancy
system.cpu.dcache.tags.occ_task_id_blocks::1024         1024                       # Occupied blocks per task id
system.cpu.dcache.tags.age_task_id_blocks_1024::1            6                       # Occupied blocks per task id
system.cpu.dcache.tags.age_task_id_blocks_1024::2          622                       # Occupied blocks per task id
system.cpu.dcache.tags.age_task_id_blocks_1024::3          364                       # Occupied blocks per task id
system.cpu.dcache.tags.age_task_id_blocks_1024::4           32                       # Occupied blocks per task id
system.cpu.dcache.tags.occ_task_id_percent::1024            1                       # Percentage of cache occupancy per task id
system.cpu.dcache.tags.tag_accesses          98511192                       # Number of tag accesses
system.cpu.dcache.tags.data_accesses         98511192                       # Number of data accesses
system.cpu.itb.walker.pwrStateResidencyTicks::UNDEFINED  64492011000                       # Cumulative time (in ticks) in various power states
system.cpu.itb.stage2_mmu.stage2_tlb.walker.pwrStateResidencyTicks::UNDEFINED  64492011000                       # Cumulative time (in ticks) in various power states

---------- End Simulation Statistics   ----------
