
---------- Begin Simulation Statistics ----------
final_tick                               515917372500                       # Number of ticks from beginning of simulation (restored from checkpoints and never reset)
host_inst_rate                                 174430                       # Simulator instruction rate (inst/s)
host_mem_usage                                 695856                       # Number of bytes of host memory used
host_op_rate                                   321936                       # Simulator op (including micro ops) rate (op/s)
host_seconds                                   573.30                       # Real time elapsed on the host
host_tick_rate                              899915719                       # Simulator tick rate (ticks/s)
sim_freq                                 1000000000000                       # Frequency of simulated ticks
sim_insts                                   100000000                       # Number of instructions simulated
sim_ops                                     184564364                       # Number of ops (including micro ops) simulated
sim_seconds                                  0.515917                       # Number of seconds simulated
sim_ticks                                515917372500                       # Number of ticks simulated
system.cpu.branchPred.BTBCorrect                    0                       # Number of correct BTB predictions (this stat may not work properly.
system.cpu.branchPred.BTBHitPct             99.953329                       # BTB Hit Percentage
system.cpu.branchPred.BTBHits                10609794                       # Number of BTB hits
system.cpu.branchPred.BTBLookups             10614748                       # Number of BTB lookups
system.cpu.branchPred.RASInCorrect                  6                       # Number of incorrect RAS predictions.
system.cpu.branchPred.condIncorrect              1505                       # Number of conditional branches incorrect
system.cpu.branchPred.condPredicted          10610643                       # Number of conditional branches predicted
system.cpu.branchPred.indirectHits                165                       # Number of indirect target hits.
system.cpu.branchPred.indirectLookups             351                       # Number of indirect predictor lookups.
system.cpu.branchPred.indirectMisses              186                       # Number of indirect misses.
system.cpu.branchPred.lookups                10619574                       # Number of BP lookups
system.cpu.branchPred.usedRAS                    2873                       # Number of times the RAS was used to get a target.
system.cpu.branchPredindirectMispredicted          143                       # Number of mispredicted indirect branches.
system.cpu.committedInsts                   100000000                       # Number of instructions committed
system.cpu.committedOps                     184564364                       # Number of ops (including micro ops) committed
system.cpu.cpi                              10.318347                       # CPI: cycles per instruction
system.cpu.discardedOps                          4061                       # Number of ops (including micro ops) which were discarded before commit
system.cpu.dtb.accesses                             0                       # DTB accesses
system.cpu.dtb.align_faults                         0                       # Number of TLB faults due to alignment restrictions
system.cpu.dtb.domain_faults                        0                       # Number of TLB faults due to domain restrictions
system.cpu.dtb.flush_entries                        0                       # Number of entries that have been flushed from TLB
system.cpu.dtb.flush_tlb                            0                       # Number of times complete TLB was flushed
system.cpu.dtb.flush_tlb_asid                       0                       # Number of times TLB was flushed by ASID
system.cpu.dtb.flush_tlb_mva                        0                       # Number of times TLB was flushed by MVA
system.cpu.dtb.flush_tlb_mva_asid                   0                       # Number of times TLB was flushed by MVA & ASID
system.cpu.dtb.hits                                 0                       # DTB hits
system.cpu.dtb.inst_accesses                        0                       # ITB inst accesses
system.cpu.dtb.inst_hits                            0                       # ITB inst hits
system.cpu.dtb.inst_misses                          0                       # ITB inst misses
system.cpu.dtb.misses                               0                       # DTB misses
system.cpu.dtb.perms_faults                         0                       # Number of TLB faults due to permissions restrictions
system.cpu.dtb.prefetch_faults                      0                       # Number of TLB faults due to prefetch
system.cpu.dtb.read_accesses                        0                       # DTB read accesses
system.cpu.dtb.read_hits                            0                       # DTB read hits
system.cpu.dtb.read_misses                          0                       # DTB read misses
system.cpu.dtb.stage2_mmu.stage2_tlb.accesses            0                       # DTB accesses
system.cpu.dtb.stage2_mmu.stage2_tlb.align_faults            0                       # Number of TLB faults due to alignment restrictions
system.cpu.dtb.stage2_mmu.stage2_tlb.domain_faults            0                       # Number of TLB faults due to domain restrictions
system.cpu.dtb.stage2_mmu.stage2_tlb.flush_entries            0                       # Number of entries that have been flushed from TLB
system.cpu.dtb.stage2_mmu.stage2_tlb.flush_tlb            0                       # Number of times complete TLB was flushed
system.cpu.dtb.stage2_mmu.stage2_tlb.flush_tlb_asid            0                       # Number of times TLB was flushed by ASID
system.cpu.dtb.stage2_mmu.stage2_tlb.flush_tlb_mva            0                       # Number of times TLB was flushed by MVA
system.cpu.dtb.stage2_mmu.stage2_tlb.flush_tlb_mva_asid            0                       # Number of times TLB was flushed by MVA & ASID
system.cpu.dtb.stage2_mmu.stage2_tlb.hits            0                       # DTB hits
system.cpu.dtb.stage2_mmu.stage2_tlb.inst_accesses            0                       # ITB inst accesses
system.cpu.dtb.stage2_mmu.stage2_tlb.inst_hits            0                       # ITB inst hits
system.cpu.dtb.stage2_mmu.stage2_tlb.inst_misses            0                       # ITB inst misses
system.cpu.dtb.stage2_mmu.stage2_tlb.misses            0                       # DTB misses
system.cpu.dtb.stage2_mmu.stage2_tlb.perms_faults            0                       # Number of TLB faults due to permissions restrictions
system.cpu.dtb.stage2_mmu.stage2_tlb.prefetch_faults            0                       # Number of TLB faults due to prefetch
system.cpu.dtb.stage2_mmu.stage2_tlb.read_accesses            0                       # DTB read accesses
system.cpu.dtb.stage2_mmu.stage2_tlb.read_hits            0                       # DTB read hits
system.cpu.dtb.stage2_mmu.stage2_tlb.read_misses            0                       # DTB read misses
system.cpu.dtb.stage2_mmu.stage2_tlb.walker.walkRequestOrigin_Requested::Data            0                       # Table walker requests started/completed, data/inst
system.cpu.dtb.stage2_mmu.stage2_tlb.walker.walkRequestOrigin_Requested::Inst            0                       # Table walker requests started/completed, data/inst
system.cpu.dtb.stage2_mmu.stage2_tlb.walker.walkRequestOrigin_Requested::total            0                       # Table walker requests started/completed, data/inst
system.cpu.dtb.stage2_mmu.stage2_tlb.walker.walkRequestOrigin_Completed::Data            0                       # Table walker requests started/completed, data/inst
system.cpu.dtb.stage2_mmu.stage2_tlb.walker.walkRequestOrigin_Completed::Inst            0                       # Table walker requests started/completed, data/inst
system.cpu.dtb.stage2_mmu.stage2_tlb.walker.walkRequestOrigin_Completed::total            0                       # Table walker requests started/completed, data/inst
system.cpu.dtb.stage2_mmu.stage2_tlb.walker.walkRequestOrigin::total            0                       # Table walker requests started/completed, data/inst
system.cpu.dtb.stage2_mmu.stage2_tlb.walker.walks            0                       # Table walker walks requested
system.cpu.dtb.stage2_mmu.stage2_tlb.write_accesses            0                       # DTB write accesses
system.cpu.dtb.stage2_mmu.stage2_tlb.write_hits            0                       # DTB write hits
system.cpu.dtb.stage2_mmu.stage2_tlb.write_misses            0                       # DTB write misses
system.cpu.dtb.walker.walkRequestOrigin_Requested::Data            0                       # Table walker requests started/completed, data/inst
system.cpu.dtb.walker.walkRequestOrigin_Requested::Inst            0                       # Table walker requests started/completed, data/inst
system.cpu.dtb.walker.walkRequestOrigin_Requested::total            0                       # Table walker requests started/completed, data/inst
system.cpu.dtb.walker.walkRequestOrigin_Completed::Data            0                       # Table walker requests started/completed, data/inst
system.cpu.dtb.walker.walkRequestOrigin_Completed::Inst            0                       # Table walker requests started/completed, data/inst
system.cpu.dtb.walker.walkRequestOrigin_Completed::total            0                       # Table walker requests started/completed, data/inst
system.cpu.dtb.walker.walkRequestOrigin::total            0                       # Table walker requests started/completed, data/inst
system.cpu.dtb.walker.walks                         0                       # Table walker walks requested
system.cpu.dtb.write_accesses                       0                       # DTB write accesses
system.cpu.dtb.write_hits                           0                       # DTB write hits
system.cpu.dtb.write_misses                         0                       # DTB write misses
system.cpu.fetch2.amo_instructions                  0                       # Number of memory atomic instructions successfully decoded
system.cpu.fetch2.fp_instructions                   0                       # Number of floating point instructions successfully decoded
system.cpu.fetch2.int_instructions           44862788                       # Number of integer instructions successfully decoded
system.cpu.fetch2.load_instructions           2093956                       # Number of memory load instructions successfully decoded
system.cpu.fetch2.store_instructions           169257                       # Number of memory store instructions successfully decoded
system.cpu.fetch2.vec_instructions                  0                       # Number of SIMD instructions successfully decoded
system.cpu.idleCycles                       809646616                       # Total number of cycles that the object has spent stopped
system.cpu.ipc                               0.096915                       # IPC: instructions per cycle
system.cpu.itb.accesses                             0                       # DTB accesses
system.cpu.itb.align_faults                         0                       # Number of TLB faults due to alignment restrictions
system.cpu.itb.domain_faults                        0                       # Number of TLB faults due to domain restrictions
system.cpu.itb.flush_entries                        0                       # Number of entries that have been flushed from TLB
system.cpu.itb.flush_tlb                            0                       # Number of times complete TLB was flushed
system.cpu.itb.flush_tlb_asid                       0                       # Number of times TLB was flushed by ASID
system.cpu.itb.flush_tlb_mva                        0                       # Number of times TLB was flushed by MVA
system.cpu.itb.flush_tlb_mva_asid                   0                       # Number of times TLB was flushed by MVA & ASID
system.cpu.itb.hits                                 0                       # DTB hits
system.cpu.itb.inst_accesses                        0                       # ITB inst accesses
system.cpu.itb.inst_hits                            0                       # ITB inst hits
system.cpu.itb.inst_misses                          0                       # ITB inst misses
system.cpu.itb.misses                               0                       # DTB misses
system.cpu.itb.perms_faults                         0                       # Number of TLB faults due to permissions restrictions
system.cpu.itb.prefetch_faults                      0                       # Number of TLB faults due to prefetch
system.cpu.itb.read_accesses                        0                       # DTB read accesses
system.cpu.itb.read_hits                            0                       # DTB read hits
system.cpu.itb.read_misses                          0                       # DTB read misses
system.cpu.itb.stage2_mmu.stage2_tlb.accesses            0                       # DTB accesses
system.cpu.itb.stage2_mmu.stage2_tlb.align_faults            0                       # Number of TLB faults due to alignment restrictions
system.cpu.itb.stage2_mmu.stage2_tlb.domain_faults            0                       # Number of TLB faults due to domain restrictions
system.cpu.itb.stage2_mmu.stage2_tlb.flush_entries            0                       # Number of entries that have been flushed from TLB
system.cpu.itb.stage2_mmu.stage2_tlb.flush_tlb            0                       # Number of times complete TLB was flushed
system.cpu.itb.stage2_mmu.stage2_tlb.flush_tlb_asid            0                       # Number of times TLB was flushed by ASID
system.cpu.itb.stage2_mmu.stage2_tlb.flush_tlb_mva            0                       # Number of times TLB was flushed by MVA
system.cpu.itb.stage2_mmu.stage2_tlb.flush_tlb_mva_asid            0                       # Number of times TLB was flushed by MVA & ASID
system.cpu.itb.stage2_mmu.stage2_tlb.hits            0                       # DTB hits
system.cpu.itb.stage2_mmu.stage2_tlb.inst_accesses            0                       # ITB inst accesses
system.cpu.itb.stage2_mmu.stage2_tlb.inst_hits            0                       # ITB inst hits
system.cpu.itb.stage2_mmu.stage2_tlb.inst_misses            0                       # ITB inst misses
system.cpu.itb.stage2_mmu.stage2_tlb.misses            0                       # DTB misses
system.cpu.itb.stage2_mmu.stage2_tlb.perms_faults            0                       # Number of TLB faults due to permissions restrictions
system.cpu.itb.stage2_mmu.stage2_tlb.prefetch_faults            0                       # Number of TLB faults due to prefetch
system.cpu.itb.stage2_mmu.stage2_tlb.read_accesses            0                       # DTB read accesses
system.cpu.itb.stage2_mmu.stage2_tlb.read_hits            0                       # DTB read hits
system.cpu.itb.stage2_mmu.stage2_tlb.read_misses            0                       # DTB read misses
system.cpu.itb.stage2_mmu.stage2_tlb.walker.walkRequestOrigin_Requested::Data            0                       # Table walker requests started/completed, data/inst
system.cpu.itb.stage2_mmu.stage2_tlb.walker.walkRequestOrigin_Requested::Inst            0                       # Table walker requests started/completed, data/inst
system.cpu.itb.stage2_mmu.stage2_tlb.walker.walkRequestOrigin_Requested::total            0                       # Table walker requests started/completed, data/inst
system.cpu.itb.stage2_mmu.stage2_tlb.walker.walkRequestOrigin_Completed::Data            0                       # Table walker requests started/completed, data/inst
system.cpu.itb.stage2_mmu.stage2_tlb.walker.walkRequestOrigin_Completed::Inst            0                       # Table walker requests started/completed, data/inst
system.cpu.itb.stage2_mmu.stage2_tlb.walker.walkRequestOrigin_Completed::total            0                       # Table walker requests started/completed, data/inst
system.cpu.itb.stage2_mmu.stage2_tlb.walker.walkRequestOrigin::total            0                       # Table walker requests started/completed, data/inst
system.cpu.itb.stage2_mmu.stage2_tlb.walker.walks            0                       # Table walker walks requested
system.cpu.itb.stage2_mmu.stage2_tlb.write_accesses            0                       # DTB write accesses
system.cpu.itb.stage2_mmu.stage2_tlb.write_hits            0                       # DTB write hits
system.cpu.itb.stage2_mmu.stage2_tlb.write_misses            0                       # DTB write misses
system.cpu.itb.walker.walkRequestOrigin_Requested::Data            0                       # Table walker requests started/completed, data/inst
system.cpu.itb.walker.walkRequestOrigin_Requested::Inst            0                       # Table walker requests started/completed, data/inst
system.cpu.itb.walker.walkRequestOrigin_Requested::total            0                       # Table walker requests started/completed, data/inst
system.cpu.itb.walker.walkRequestOrigin_Completed::Data            0                       # Table walker requests started/completed, data/inst
system.cpu.itb.walker.walkRequestOrigin_Completed::Inst            0                       # Table walker requests started/completed, data/inst
system.cpu.itb.walker.walkRequestOrigin_Completed::total            0                       # Table walker requests started/completed, data/inst
system.cpu.itb.walker.walkRequestOrigin::total            0                       # Table walker requests started/completed, data/inst
system.cpu.itb.walker.walks                         0                       # Table walker walks requested
system.cpu.itb.write_accesses                       0                       # DTB write accesses
system.cpu.itb.write_hits                           0                       # DTB write hits
system.cpu.itb.write_misses                         0                       # DTB write misses
system.cpu.numCycles                       1031834745                       # number of cpu cycles simulated
system.cpu.numFetchSuspends                         0                       # Number of times Execute suspended instruction fetching
system.cpu.numWorkItemsCompleted                    0                       # number of work items this cpu completed
system.cpu.numWorkItemsStarted                      0                       # number of work items this cpu started
system.cpu.op_class_0::No_OpClass                   0      0.00%      0.00% # Class of committed instruction
system.cpu.op_class_0::IntAlu                97748508     52.96%     52.96% # Class of committed instruction
system.cpu.op_class_0::IntMult                     79      0.00%     52.96% # Class of committed instruction
system.cpu.op_class_0::IntDiv                       0      0.00%     52.96% # Class of committed instruction
system.cpu.op_class_0::FloatAdd                     0      0.00%     52.96% # Class of committed instruction
system.cpu.op_class_0::FloatCmp                     0      0.00%     52.96% # Class of committed instruction
system.cpu.op_class_0::FloatCvt                     0      0.00%     52.96% # Class of committed instruction
system.cpu.op_class_0::FloatMult                    0      0.00%     52.96% # Class of committed instruction
system.cpu.op_class_0::FloatMultAcc                 0      0.00%     52.96% # Class of committed instruction
system.cpu.op_class_0::FloatDiv                     0      0.00%     52.96% # Class of committed instruction
system.cpu.op_class_0::FloatMisc                    0      0.00%     52.96% # Class of committed instruction
system.cpu.op_class_0::FloatSqrt                    0      0.00%     52.96% # Class of committed instruction
system.cpu.op_class_0::SimdAdd                      0      0.00%     52.96% # Class of committed instruction
system.cpu.op_class_0::SimdAddAcc                   0      0.00%     52.96% # Class of committed instruction
system.cpu.op_class_0::SimdAlu                      0      0.00%     52.96% # Class of committed instruction
system.cpu.op_class_0::SimdCmp                      0      0.00%     52.96% # Class of committed instruction
system.cpu.op_class_0::SimdCvt                      0      0.00%     52.96% # Class of committed instruction
system.cpu.op_class_0::SimdMisc                     0      0.00%     52.96% # Class of committed instruction
system.cpu.op_class_0::SimdMult                     0      0.00%     52.96% # Class of committed instruction
system.cpu.op_class_0::SimdMultAcc                  0      0.00%     52.96% # Class of committed instruction
system.cpu.op_class_0::SimdShift                    0      0.00%     52.96% # Class of committed instruction
system.cpu.op_class_0::SimdShiftAcc                 0      0.00%     52.96% # Class of committed instruction
system.cpu.op_class_0::SimdDiv                      0      0.00%     52.96% # Class of committed instruction
system.cpu.op_class_0::SimdSqrt                     0      0.00%     52.96% # Class of committed instruction
system.cpu.op_class_0::SimdFloatAdd                 0      0.00%     52.96% # Class of committed instruction
system.cpu.op_class_0::SimdFloatAlu                 0      0.00%     52.96% # Class of committed instruction
system.cpu.op_class_0::SimdFloatCmp                 0      0.00%     52.96% # Class of committed instruction
system.cpu.op_class_0::SimdFloatCvt                 0      0.00%     52.96% # Class of committed instruction
system.cpu.op_class_0::SimdFloatDiv                 0      0.00%     52.96% # Class of committed instruction
system.cpu.op_class_0::SimdFloatMisc               18      0.00%     52.96% # Class of committed instruction
system.cpu.op_class_0::SimdFloatMult                0      0.00%     52.96% # Class of committed instruction
system.cpu.op_class_0::SimdFloatMultAcc             0      0.00%     52.96% # Class of committed instruction
system.cpu.op_class_0::SimdFloatSqrt                0      0.00%     52.96% # Class of committed instruction
system.cpu.op_class_0::SimdReduceAdd                0      0.00%     52.96% # Class of committed instruction
system.cpu.op_class_0::SimdReduceAlu                0      0.00%     52.96% # Class of committed instruction
system.cpu.op_class_0::SimdReduceCmp                0      0.00%     52.96% # Class of committed instruction
system.cpu.op_class_0::SimdFloatReduceAdd            0      0.00%     52.96% # Class of committed instruction
system.cpu.op_class_0::SimdFloatReduceCmp            0      0.00%     52.96% # Class of committed instruction
system.cpu.op_class_0::SimdAes                      0      0.00%     52.96% # Class of committed instruction
system.cpu.op_class_0::SimdAesMix                   0      0.00%     52.96% # Class of committed instruction
system.cpu.op_class_0::SimdSha1Hash                 0      0.00%     52.96% # Class of committed instruction
system.cpu.op_class_0::SimdSha1Hash2                0      0.00%     52.96% # Class of committed instruction
system.cpu.op_class_0::SimdSha256Hash               0      0.00%     52.96% # Class of committed instruction
system.cpu.op_class_0::SimdSha256Hash2              0      0.00%     52.96% # Class of committed instruction
system.cpu.op_class_0::SimdShaSigma2                0      0.00%     52.96% # Class of committed instruction
system.cpu.op_class_0::SimdShaSigma3                0      0.00%     52.96% # Class of committed instruction
system.cpu.op_class_0::SimdPredAlu                  0      0.00%     52.96% # Class of committed instruction
system.cpu.op_class_0::MemRead                2089319      1.13%     54.09% # Class of committed instruction
system.cpu.op_class_0::MemWrite              84726440     45.91%    100.00% # Class of committed instruction
system.cpu.op_class_0::FloatMemRead                 0      0.00%    100.00% # Class of committed instruction
system.cpu.op_class_0::FloatMemWrite                0      0.00%    100.00% # Class of committed instruction
system.cpu.op_class_0::IprAccess                    0      0.00%    100.00% # Class of committed instruction
system.cpu.op_class_0::InstPrefetch                 0      0.00%    100.00% # Class of committed instruction
system.cpu.op_class_0::total                184564364                       # Class of committed instruction
system.cpu.tickCycles                       222188129                       # Number of cycles that the object actually ticked
system.cpu.workload.numSyscalls                    18                       # Number of system calls
system.membus.snoop_filter.hit_multi_requests            0                       # Number of requests hitting in the snoop filter with multiple (>1) holders of the requested data.
system.membus.snoop_filter.hit_multi_snoops            0                       # Number of snoops hitting in the snoop filter with multiple (>1) holders of the requested data.
system.membus.snoop_filter.hit_single_requests      5255037                       # Number of requests hitting in the snoop filter with a single holder of the requested data.
system.membus.snoop_filter.hit_single_snoops            0                       # Number of snoops hitting in the snoop filter with a single holder of the requested data.
system.membus.snoop_filter.tot_requests      10543294                       # Total number of requests made to the snoop filter.
system.membus.snoop_filter.tot_snoops               0                       # Total number of snoops made to the snoop filter.
system.tol2bus.snoop_filter.hit_multi_requests          104                       # Number of requests hitting in the snoop filter with multiple (>1) holders of the requested data.
system.tol2bus.snoop_filter.hit_multi_snoops            0                       # Number of snoops hitting in the snoop filter with multiple (>1) holders of the requested data.
system.tol2bus.snoop_filter.hit_single_requests      5286984                       # Number of requests hitting in the snoop filter with a single holder of the requested data.
system.tol2bus.snoop_filter.hit_single_snoops          693                       # Number of snoops hitting in the snoop filter with a single holder of the requested data.
system.tol2bus.snoop_filter.tot_requests     10575455                       # Total number of requests made to the snoop filter.
system.tol2bus.snoop_filter.tot_snoops            693                       # Total number of snoops made to the snoop filter.
system.membus.pwrStateResidencyTicks::UNDEFINED 515917372500                       # Cumulative time (in ticks) in various power states
system.membus.trans_dist::ReadResp               1072                       # Transaction distribution
system.membus.trans_dist::WritebackDirty      5254459                       # Transaction distribution
system.membus.trans_dist::CleanEvict              567                       # Transaction distribution
system.membus.trans_dist::ReadExReq           5287196                       # Transaction distribution
system.membus.trans_dist::ReadExResp          5287196                       # Transaction distribution
system.membus.trans_dist::ReadSharedReq          1072                       # Transaction distribution
system.membus.pkt_count_system.l2.mem_side::system.mem_ctrls.port     15831562                       # Packet count per connected master and slave (bytes)
system.membus.pkt_count::total               15831562                       # Packet count per connected master and slave (bytes)
system.membus.pkt_size_system.l2.mem_side::system.mem_ctrls.port    674734528                       # Cumulative packet size per connected master and slave (bytes)
system.membus.pkt_size::total               674734528                       # Cumulative packet size per connected master and slave (bytes)
system.membus.snoops                                0                       # Total snoops (count)
system.membus.snoopTraffic                          0                       # Total snoop traffic (bytes)
system.membus.snoop_fanout::samples           5288268                       # Request fanout histogram
system.membus.snoop_fanout::mean                    0                       # Request fanout histogram
system.membus.snoop_fanout::stdev                   0                       # Request fanout histogram
system.membus.snoop_fanout::underflows              0      0.00%      0.00% # Request fanout histogram
system.membus.snoop_fanout::0                 5288268    100.00%    100.00% # Request fanout histogram
system.membus.snoop_fanout::1                       0      0.00%    100.00% # Request fanout histogram
system.membus.snoop_fanout::overflows               0      0.00%    100.00% # Request fanout histogram
system.membus.snoop_fanout::min_value               0                       # Request fanout histogram
system.membus.snoop_fanout::max_value               0                       # Request fanout histogram
system.membus.snoop_fanout::total             5288268                       # Request fanout histogram
system.membus.respLayer1.occupancy        27809031750                       # Layer occupancy (ticks)
system.membus.respLayer1.utilization              5.4                       # Layer utilization (%)
system.membus.reqLayer0.occupancy         31561610000                       # Layer occupancy (ticks)
system.membus.reqLayer0.utilization               6.1                       # Layer utilization (%)
system.tol2bus.pwrStateResidencyTicks::UNDEFINED 515917372500                       # Cumulative time (in ticks) in various power states
system.tol2bus.trans_dist::ReadResp              1262                       # Transaction distribution
system.tol2bus.trans_dist::WritebackDirty     10540687                       # Transaction distribution
system.tol2bus.trans_dist::WritebackClean          374                       # Transaction distribution
system.tol2bus.trans_dist::CleanEvict            1609                       # Transaction distribution
system.tol2bus.trans_dist::ReadExReq          5287209                       # Transaction distribution
system.tol2bus.trans_dist::ReadExResp         5287209                       # Transaction distribution
system.tol2bus.trans_dist::ReadCleanReq           837                       # Transaction distribution
system.tol2bus.trans_dist::ReadSharedReq          425                       # Transaction distribution
system.tol2bus.pkt_count_system.cpu.icache.mem_side::system.l2.cpu_side         2048                       # Packet count per connected master and slave (bytes)
system.tol2bus.pkt_count_system.cpu.dcache.mem_side::system.l2.cpu_side     15861878                       # Packet count per connected master and slave (bytes)
system.tol2bus.pkt_count::total              15863926                       # Packet count per connected master and slave (bytes)
system.tol2bus.pkt_size_system.cpu.icache.mem_side::system.l2.cpu_side        77504                       # Cumulative packet size per connected master and slave (bytes)
system.tol2bus.pkt_size_system.cpu.dcache.mem_side::system.l2.cpu_side    676727168                       # Cumulative packet size per connected master and slave (bytes)
system.tol2bus.pkt_size::total              676804672                       # Cumulative packet size per connected master and slave (bytes)
system.tol2bus.snoops                         5255686                       # Total snoops (count)
system.tol2bus.snoopTraffic                 336285376                       # Total snoop traffic (bytes)
system.tol2bus.snoop_fanout::samples         10544157                       # Request fanout histogram
system.tol2bus.snoop_fanout::mean            0.000076                       # Request fanout histogram
system.tol2bus.snoop_fanout::stdev           0.008694                       # Request fanout histogram
system.tol2bus.snoop_fanout::underflows             0      0.00%      0.00% # Request fanout histogram
system.tol2bus.snoop_fanout::0               10543360     99.99%     99.99% # Request fanout histogram
system.tol2bus.snoop_fanout::1                    797      0.01%    100.00% # Request fanout histogram
system.tol2bus.snoop_fanout::2                      0      0.00%    100.00% # Request fanout histogram
system.tol2bus.snoop_fanout::overflows              0      0.00%    100.00% # Request fanout histogram
system.tol2bus.snoop_fanout::min_value              0                       # Request fanout histogram
system.tol2bus.snoop_fanout::max_value              1                       # Request fanout histogram
system.tol2bus.snoop_fanout::total           10544157                       # Request fanout histogram
system.tol2bus.reqLayer0.occupancy        10574329500                       # Layer occupancy (ticks)
system.tol2bus.reqLayer0.utilization              2.0                       # Layer utilization (%)
system.tol2bus.respLayer1.occupancy        7931456489                       # Layer occupancy (ticks)
system.tol2bus.respLayer1.utilization             1.5                       # Layer utilization (%)
system.tol2bus.respLayer0.occupancy           1256498                       # Layer occupancy (ticks)
system.tol2bus.respLayer0.utilization             0.0                       # Layer utilization (%)
system.voltage_domain.voltage                       1                       # Voltage in Volts
system.clk_domain.clock                          1000                       # Clock period in ticks
system.l2.pwrStateResidencyTicks::UNDEFINED 515917372500                       # Cumulative time (in ticks) in various power states
system.l2.demand_hits::.cpu.inst                  113                       # number of demand (read+write) hits
system.l2.demand_hits::.cpu.data                   78                       # number of demand (read+write) hits
system.l2.demand_hits::total                      191                       # number of demand (read+write) hits
system.l2.overall_hits::.cpu.inst                 113                       # number of overall hits
system.l2.overall_hits::.cpu.data                  78                       # number of overall hits
system.l2.overall_hits::total                     191                       # number of overall hits
system.l2.demand_misses::.cpu.inst                724                       # number of demand (read+write) misses
system.l2.demand_misses::.cpu.data            5287556                       # number of demand (read+write) misses
system.l2.demand_misses::total                5288280                       # number of demand (read+write) misses
system.l2.overall_misses::.cpu.inst               724                       # number of overall misses
system.l2.overall_misses::.cpu.data           5287556                       # number of overall misses
system.l2.overall_misses::total               5288280                       # number of overall misses
system.l2.demand_miss_latency::.cpu.inst     58259000                       # number of demand (read+write) miss cycles
system.l2.demand_miss_latency::.cpu.data 425863565000                       # number of demand (read+write) miss cycles
system.l2.demand_miss_latency::total     425921824000                       # number of demand (read+write) miss cycles
system.l2.overall_miss_latency::.cpu.inst     58259000                       # number of overall miss cycles
system.l2.overall_miss_latency::.cpu.data 425863565000                       # number of overall miss cycles
system.l2.overall_miss_latency::total    425921824000                       # number of overall miss cycles
system.l2.demand_accesses::.cpu.inst              837                       # number of demand (read+write) accesses
system.l2.demand_accesses::.cpu.data          5287634                       # number of demand (read+write) accesses
system.l2.demand_accesses::total              5288471                       # number of demand (read+write) accesses
system.l2.overall_accesses::.cpu.inst             837                       # number of overall (read+write) accesses
system.l2.overall_accesses::.cpu.data         5287634                       # number of overall (read+write) accesses
system.l2.overall_accesses::total             5288471                       # number of overall (read+write) accesses
system.l2.demand_miss_rate::.cpu.inst        0.864994                       # miss rate for demand accesses
system.l2.demand_miss_rate::.cpu.data        0.999985                       # miss rate for demand accesses
system.l2.demand_miss_rate::total            0.999964                       # miss rate for demand accesses
system.l2.overall_miss_rate::.cpu.inst       0.864994                       # miss rate for overall accesses
system.l2.overall_miss_rate::.cpu.data       0.999985                       # miss rate for overall accesses
system.l2.overall_miss_rate::total           0.999964                       # miss rate for overall accesses
system.l2.demand_avg_miss_latency::.cpu.inst 80468.232044                       # average overall miss latency
system.l2.demand_avg_miss_latency::.cpu.data 80540.719569                       # average overall miss latency
system.l2.demand_avg_miss_latency::total 80540.709645                       # average overall miss latency
system.l2.overall_avg_miss_latency::.cpu.inst 80468.232044                       # average overall miss latency
system.l2.overall_avg_miss_latency::.cpu.data 80540.719569                       # average overall miss latency
system.l2.overall_avg_miss_latency::total 80540.709645                       # average overall miss latency
system.l2.blocked_cycles::no_mshrs                  0                       # number of cycles access was blocked
system.l2.blocked_cycles::no_targets                0                       # number of cycles access was blocked
system.l2.blocked::no_mshrs                         0                       # number of cycles access was blocked
system.l2.blocked::no_targets                       0                       # number of cycles access was blocked
system.l2.avg_blocked_cycles::no_mshrs            nan                       # average number of cycles each access was blocked
system.l2.avg_blocked_cycles::no_targets          nan                       # average number of cycles each access was blocked
system.l2.writebacks::.writebacks             5254459                       # number of writebacks
system.l2.writebacks::total                   5254459                       # number of writebacks
system.l2.demand_mshr_hits::.cpu.inst               1                       # number of demand (read+write) MSHR hits
system.l2.demand_mshr_hits::.cpu.data              11                       # number of demand (read+write) MSHR hits
system.l2.demand_mshr_hits::total                  12                       # number of demand (read+write) MSHR hits
system.l2.overall_mshr_hits::.cpu.inst              1                       # number of overall MSHR hits
system.l2.overall_mshr_hits::.cpu.data             11                       # number of overall MSHR hits
system.l2.overall_mshr_hits::total                 12                       # number of overall MSHR hits
system.l2.demand_mshr_misses::.cpu.inst           723                       # number of demand (read+write) MSHR misses
system.l2.demand_mshr_misses::.cpu.data       5287545                       # number of demand (read+write) MSHR misses
system.l2.demand_mshr_misses::total           5288268                       # number of demand (read+write) MSHR misses
system.l2.overall_mshr_misses::.cpu.inst          723                       # number of overall MSHR misses
system.l2.overall_mshr_misses::.cpu.data      5287545                       # number of overall MSHR misses
system.l2.overall_mshr_misses::total          5288268                       # number of overall MSHR misses
system.l2.demand_mshr_miss_latency::.cpu.inst     50974500                       # number of demand (read+write) MSHR miss cycles
system.l2.demand_mshr_miss_latency::.cpu.data 372987420500                       # number of demand (read+write) MSHR miss cycles
system.l2.demand_mshr_miss_latency::total 373038395000                       # number of demand (read+write) MSHR miss cycles
system.l2.overall_mshr_miss_latency::.cpu.inst     50974500                       # number of overall MSHR miss cycles
system.l2.overall_mshr_miss_latency::.cpu.data 372987420500                       # number of overall MSHR miss cycles
system.l2.overall_mshr_miss_latency::total 373038395000                       # number of overall MSHR miss cycles
system.l2.demand_mshr_miss_rate::.cpu.inst     0.863799                       # mshr miss rate for demand accesses
system.l2.demand_mshr_miss_rate::.cpu.data     0.999983                       # mshr miss rate for demand accesses
system.l2.demand_mshr_miss_rate::total       0.999962                       # mshr miss rate for demand accesses
system.l2.overall_mshr_miss_rate::.cpu.inst     0.863799                       # mshr miss rate for overall accesses
system.l2.overall_mshr_miss_rate::.cpu.data     0.999983                       # mshr miss rate for overall accesses
system.l2.overall_mshr_miss_rate::total      0.999962                       # mshr miss rate for overall accesses
system.l2.demand_avg_mshr_miss_latency::.cpu.inst 70504.149378                       # average overall mshr miss latency
system.l2.demand_avg_mshr_miss_latency::.cpu.data 70540.755776                       # average overall mshr miss latency
system.l2.demand_avg_mshr_miss_latency::total 70540.750771                       # average overall mshr miss latency
system.l2.overall_avg_mshr_miss_latency::.cpu.inst 70504.149378                       # average overall mshr miss latency
system.l2.overall_avg_mshr_miss_latency::.cpu.data 70540.755776                       # average overall mshr miss latency
system.l2.overall_avg_mshr_miss_latency::total 70540.750771                       # average overall mshr miss latency
system.l2.replacements                        5255686                       # number of replacements
system.l2.WritebackDirty_hits::.writebacks      5286228                       # number of WritebackDirty hits
system.l2.WritebackDirty_hits::total          5286228                       # number of WritebackDirty hits
system.l2.WritebackDirty_accesses::.writebacks      5286228                       # number of WritebackDirty accesses(hits+misses)
system.l2.WritebackDirty_accesses::total      5286228                       # number of WritebackDirty accesses(hits+misses)
system.l2.WritebackClean_hits::.writebacks          362                       # number of WritebackClean hits
system.l2.WritebackClean_hits::total              362                       # number of WritebackClean hits
system.l2.WritebackClean_accesses::.writebacks          362                       # number of WritebackClean accesses(hits+misses)
system.l2.WritebackClean_accesses::total          362                       # number of WritebackClean accesses(hits+misses)
system.l2.CleanEvict_mshr_misses::.writebacks           33                       # number of CleanEvict MSHR misses
system.l2.CleanEvict_mshr_misses::total            33                       # number of CleanEvict MSHR misses
system.l2.CleanEvict_mshr_miss_rate::.writebacks          inf                       # mshr miss rate for CleanEvict accesses
system.l2.CleanEvict_mshr_miss_rate::total          inf                       # mshr miss rate for CleanEvict accesses
system.l2.ReadExReq_hits::.cpu.data                13                       # number of ReadExReq hits
system.l2.ReadExReq_hits::total                    13                       # number of ReadExReq hits
system.l2.ReadExReq_misses::.cpu.data         5287196                       # number of ReadExReq misses
system.l2.ReadExReq_misses::total             5287196                       # number of ReadExReq misses
system.l2.ReadExReq_miss_latency::.cpu.data 425833515500                       # number of ReadExReq miss cycles
system.l2.ReadExReq_miss_latency::total  425833515500                       # number of ReadExReq miss cycles
system.l2.ReadExReq_accesses::.cpu.data       5287209                       # number of ReadExReq accesses(hits+misses)
system.l2.ReadExReq_accesses::total           5287209                       # number of ReadExReq accesses(hits+misses)
system.l2.ReadExReq_miss_rate::.cpu.data     0.999998                       # miss rate for ReadExReq accesses
system.l2.ReadExReq_miss_rate::total         0.999998                       # miss rate for ReadExReq accesses
system.l2.ReadExReq_avg_miss_latency::.cpu.data 80540.520060                       # average ReadExReq miss latency
system.l2.ReadExReq_avg_miss_latency::total 80540.520060                       # average ReadExReq miss latency
system.l2.ReadExReq_mshr_misses::.cpu.data      5287196                       # number of ReadExReq MSHR misses
system.l2.ReadExReq_mshr_misses::total        5287196                       # number of ReadExReq MSHR misses
system.l2.ReadExReq_mshr_miss_latency::.cpu.data 372961555500                       # number of ReadExReq MSHR miss cycles
system.l2.ReadExReq_mshr_miss_latency::total 372961555500                       # number of ReadExReq MSHR miss cycles
system.l2.ReadExReq_mshr_miss_rate::.cpu.data     0.999998                       # mshr miss rate for ReadExReq accesses
system.l2.ReadExReq_mshr_miss_rate::total     0.999998                       # mshr miss rate for ReadExReq accesses
system.l2.ReadExReq_avg_mshr_miss_latency::.cpu.data 70540.520060                       # average ReadExReq mshr miss latency
system.l2.ReadExReq_avg_mshr_miss_latency::total 70540.520060                       # average ReadExReq mshr miss latency
system.l2.ReadCleanReq_hits::.cpu.inst            113                       # number of ReadCleanReq hits
system.l2.ReadCleanReq_hits::total                113                       # number of ReadCleanReq hits
system.l2.ReadCleanReq_misses::.cpu.inst          724                       # number of ReadCleanReq misses
system.l2.ReadCleanReq_misses::total              724                       # number of ReadCleanReq misses
system.l2.ReadCleanReq_miss_latency::.cpu.inst     58259000                       # number of ReadCleanReq miss cycles
system.l2.ReadCleanReq_miss_latency::total     58259000                       # number of ReadCleanReq miss cycles
system.l2.ReadCleanReq_accesses::.cpu.inst          837                       # number of ReadCleanReq accesses(hits+misses)
system.l2.ReadCleanReq_accesses::total            837                       # number of ReadCleanReq accesses(hits+misses)
system.l2.ReadCleanReq_miss_rate::.cpu.inst     0.864994                       # miss rate for ReadCleanReq accesses
system.l2.ReadCleanReq_miss_rate::total      0.864994                       # miss rate for ReadCleanReq accesses
system.l2.ReadCleanReq_avg_miss_latency::.cpu.inst 80468.232044                       # average ReadCleanReq miss latency
system.l2.ReadCleanReq_avg_miss_latency::total 80468.232044                       # average ReadCleanReq miss latency
system.l2.ReadCleanReq_mshr_hits::.cpu.inst            1                       # number of ReadCleanReq MSHR hits
system.l2.ReadCleanReq_mshr_hits::total             1                       # number of ReadCleanReq MSHR hits
system.l2.ReadCleanReq_mshr_misses::.cpu.inst          723                       # number of ReadCleanReq MSHR misses
system.l2.ReadCleanReq_mshr_misses::total          723                       # number of ReadCleanReq MSHR misses
system.l2.ReadCleanReq_mshr_miss_latency::.cpu.inst     50974500                       # number of ReadCleanReq MSHR miss cycles
system.l2.ReadCleanReq_mshr_miss_latency::total     50974500                       # number of ReadCleanReq MSHR miss cycles
system.l2.ReadCleanReq_mshr_miss_rate::.cpu.inst     0.863799                       # mshr miss rate for ReadCleanReq accesses
system.l2.ReadCleanReq_mshr_miss_rate::total     0.863799                       # mshr miss rate for ReadCleanReq accesses
system.l2.ReadCleanReq_avg_mshr_miss_latency::.cpu.inst 70504.149378                       # average ReadCleanReq mshr miss latency
system.l2.ReadCleanReq_avg_mshr_miss_latency::total 70504.149378                       # average ReadCleanReq mshr miss latency
system.l2.ReadSharedReq_hits::.cpu.data            65                       # number of ReadSharedReq hits
system.l2.ReadSharedReq_hits::total                65                       # number of ReadSharedReq hits
system.l2.ReadSharedReq_misses::.cpu.data          360                       # number of ReadSharedReq misses
system.l2.ReadSharedReq_misses::total             360                       # number of ReadSharedReq misses
system.l2.ReadSharedReq_miss_latency::.cpu.data     30049500                       # number of ReadSharedReq miss cycles
system.l2.ReadSharedReq_miss_latency::total     30049500                       # number of ReadSharedReq miss cycles
system.l2.ReadSharedReq_accesses::.cpu.data          425                       # number of ReadSharedReq accesses(hits+misses)
system.l2.ReadSharedReq_accesses::total           425                       # number of ReadSharedReq accesses(hits+misses)
system.l2.ReadSharedReq_miss_rate::.cpu.data     0.847059                       # miss rate for ReadSharedReq accesses
system.l2.ReadSharedReq_miss_rate::total     0.847059                       # miss rate for ReadSharedReq accesses
system.l2.ReadSharedReq_avg_miss_latency::.cpu.data 83470.833333                       # average ReadSharedReq miss latency
system.l2.ReadSharedReq_avg_miss_latency::total 83470.833333                       # average ReadSharedReq miss latency
system.l2.ReadSharedReq_mshr_hits::.cpu.data           11                       # number of ReadSharedReq MSHR hits
system.l2.ReadSharedReq_mshr_hits::total           11                       # number of ReadSharedReq MSHR hits
system.l2.ReadSharedReq_mshr_misses::.cpu.data          349                       # number of ReadSharedReq MSHR misses
system.l2.ReadSharedReq_mshr_misses::total          349                       # number of ReadSharedReq MSHR misses
system.l2.ReadSharedReq_mshr_miss_latency::.cpu.data     25865000                       # number of ReadSharedReq MSHR miss cycles
system.l2.ReadSharedReq_mshr_miss_latency::total     25865000                       # number of ReadSharedReq MSHR miss cycles
system.l2.ReadSharedReq_mshr_miss_rate::.cpu.data     0.821176                       # mshr miss rate for ReadSharedReq accesses
system.l2.ReadSharedReq_mshr_miss_rate::total     0.821176                       # mshr miss rate for ReadSharedReq accesses
system.l2.ReadSharedReq_avg_mshr_miss_latency::.cpu.data 74111.747851                       # average ReadSharedReq mshr miss latency
system.l2.ReadSharedReq_avg_mshr_miss_latency::total 74111.747851                       # average ReadSharedReq mshr miss latency
system.l2.tags.pwrStateResidencyTicks::UNDEFINED 515917372500                       # Cumulative time (in ticks) in various power states
system.l2.tags.tagsinuse                 32496.975042                       # Cycle average of tags in use
system.l2.tags.total_refs                    10575306                       # Total number of references to valid blocks.
system.l2.tags.sampled_refs                   5288454                       # Sample count of references to valid blocks.
system.l2.tags.avg_refs                      1.999697                       # Average number of references to valid blocks.
system.l2.tags.warmup_cycle                     77000                       # Cycle when the warmup percentage was hit.
system.l2.tags.occ_blocks::.writebacks       0.935390                       # Average occupied blocks per requestor
system.l2.tags.occ_blocks::.cpu.inst         6.187183                       # Average occupied blocks per requestor
system.l2.tags.occ_blocks::.cpu.data     32489.852468                       # Average occupied blocks per requestor
system.l2.tags.occ_percent::.writebacks      0.000029                       # Average percentage of cache occupancy
system.l2.tags.occ_percent::.cpu.inst        0.000189                       # Average percentage of cache occupancy
system.l2.tags.occ_percent::.cpu.data        0.991512                       # Average percentage of cache occupancy
system.l2.tags.occ_percent::total            0.991729                       # Average percentage of cache occupancy
system.l2.tags.occ_task_id_blocks::1024         32768                       # Occupied blocks per task id
system.l2.tags.age_task_id_blocks_1024::0          101                       # Occupied blocks per task id
system.l2.tags.age_task_id_blocks_1024::1          927                       # Occupied blocks per task id
system.l2.tags.age_task_id_blocks_1024::2         9263                       # Occupied blocks per task id
system.l2.tags.age_task_id_blocks_1024::3        22477                       # Occupied blocks per task id
system.l2.tags.occ_task_id_percent::1024            1                       # Percentage of cache occupancy per task id
system.l2.tags.tag_accesses                  15863805                       # Number of tag accesses
system.l2.tags.data_accesses                 15863805                       # Number of data accesses
system.cpu_voltage_domain.voltage                   1                       # Voltage in Volts
system.mem_ctrls.pwrStateResidencyTicks::UNDEFINED 515917372500                       # Cumulative time (in ticks) in various power states
system.mem_ctrls.bytes_read::.cpu.inst          46272                       # Number of bytes read from this memory
system.mem_ctrls.bytes_read::.cpu.data      338402880                       # Number of bytes read from this memory
system.mem_ctrls.bytes_read::total          338449152                       # Number of bytes read from this memory
system.mem_ctrls.bytes_inst_read::.cpu.inst        46272                       # Number of instructions bytes read from this memory
system.mem_ctrls.bytes_inst_read::total         46272                       # Number of instructions bytes read from this memory
system.mem_ctrls.bytes_written::.writebacks    336285376                       # Number of bytes written to this memory
system.mem_ctrls.bytes_written::total       336285376                       # Number of bytes written to this memory
system.mem_ctrls.num_reads::.cpu.inst             723                       # Number of read requests responded to by this memory
system.mem_ctrls.num_reads::.cpu.data         5287545                       # Number of read requests responded to by this memory
system.mem_ctrls.num_reads::total             5288268                       # Number of read requests responded to by this memory
system.mem_ctrls.num_writes::.writebacks      5254459                       # Number of write requests responded to by this memory
system.mem_ctrls.num_writes::total            5254459                       # Number of write requests responded to by this memory
system.mem_ctrls.bw_read::.cpu.inst             89689                       # Total read bandwidth from this memory (bytes/s)
system.mem_ctrls.bw_read::.cpu.data         655924569                       # Total read bandwidth from this memory (bytes/s)
system.mem_ctrls.bw_read::total             656014257                       # Total read bandwidth from this memory (bytes/s)
system.mem_ctrls.bw_inst_read::.cpu.inst        89689                       # Instruction read bandwidth from this memory (bytes/s)
system.mem_ctrls.bw_inst_read::total            89689                       # Instruction read bandwidth from this memory (bytes/s)
system.mem_ctrls.bw_write::.writebacks      651820221                       # Write bandwidth from this memory (bytes/s)
system.mem_ctrls.bw_write::total            651820221                       # Write bandwidth from this memory (bytes/s)
system.mem_ctrls.bw_total::.writebacks      651820221                       # Total bandwidth to/from this memory (bytes/s)
system.mem_ctrls.bw_total::.cpu.inst            89689                       # Total bandwidth to/from this memory (bytes/s)
system.mem_ctrls.bw_total::.cpu.data        655924569                       # Total bandwidth to/from this memory (bytes/s)
system.mem_ctrls.bw_total::total           1307834479                       # Total bandwidth to/from this memory (bytes/s)
system.mem_ctrls.avgPriority_.writebacks::samples   5254459.00                       # Average QoS priority value for accepted requests
system.mem_ctrls.avgPriority_.cpu.inst::samples       723.00                       # Average QoS priority value for accepted requests
system.mem_ctrls.avgPriority_.cpu.data::samples   5287545.00                       # Average QoS priority value for accepted requests
system.mem_ctrls.priorityMinLatency      0.000000018750                       # per QoS priority minimum request to response latency (s)
system.mem_ctrls.priorityMaxLatency      0.004037246500                       # per QoS priority maximum request to response latency (s)
system.mem_ctrls.numReadWriteTurnArounds       328313                       # Number of turnarounds from READ to WRITE
system.mem_ctrls.numWriteReadTurnArounds       328313                       # Number of turnarounds from WRITE to READ
system.mem_ctrls.numStayReadState            15614555                       # Number of times bus staying in READ state
system.mem_ctrls.numStayWriteState            4945312                       # Number of times bus staying in WRITE state
system.mem_ctrls.readReqs                     5288268                       # Number of read requests accepted
system.mem_ctrls.writeReqs                    5254459                       # Number of write requests accepted
system.mem_ctrls.readBursts                   5288268                       # Number of DRAM read bursts, including those serviced by the write queue
system.mem_ctrls.writeBursts                  5254459                       # Number of DRAM write bursts, including those merged in the write queue
system.mem_ctrls.servicedByWrQ                      0                       # Number of DRAM read bursts serviced by the write queue
system.mem_ctrls.mergedWrBursts                     0                       # Number of DRAM write bursts merged with an existing one
system.mem_ctrls.neitherReadNorWriteReqs            0                       # Number of requests that are neither read nor write
system.mem_ctrls.perBankRdBursts::0            330394                       # Per bank write bursts
system.mem_ctrls.perBankRdBursts::1            330453                       # Per bank write bursts
system.mem_ctrls.perBankRdBursts::2            330368                       # Per bank write bursts
system.mem_ctrls.perBankRdBursts::3            330620                       # Per bank write bursts
system.mem_ctrls.perBankRdBursts::4            330586                       # Per bank write bursts
system.mem_ctrls.perBankRdBursts::5            330442                       # Per bank write bursts
system.mem_ctrls.perBankRdBursts::6            330506                       # Per bank write bursts
system.mem_ctrls.perBankRdBursts::7            330362                       # Per bank write bursts
system.mem_ctrls.perBankRdBursts::8            330499                       # Per bank write bursts
system.mem_ctrls.perBankRdBursts::9            330579                       # Per bank write bursts
system.mem_ctrls.perBankRdBursts::10           330611                       # Per bank write bursts
system.mem_ctrls.perBankRdBursts::11           330598                       # Per bank write bursts
system.mem_ctrls.perBankRdBursts::12           330641                       # Per bank write bursts
system.mem_ctrls.perBankRdBursts::13           330611                       # Per bank write bursts
system.mem_ctrls.perBankRdBursts::14           330613                       # Per bank write bursts
system.mem_ctrls.perBankRdBursts::15           330385                       # Per bank write bursts
system.mem_ctrls.perBankWrBursts::0            328320                       # Per bank write bursts
system.mem_ctrls.perBankWrBursts::1            328320                       # Per bank write bursts
system.mem_ctrls.perBankWrBursts::2            328275                       # Per bank write bursts
system.mem_ctrls.perBankWrBursts::3            328496                       # Per bank write bursts
system.mem_ctrls.perBankWrBursts::4            328470                       # Per bank write bursts
system.mem_ctrls.perBankWrBursts::5            328298                       # Per bank write bursts
system.mem_ctrls.perBankWrBursts::6            328401                       # Per bank write bursts
system.mem_ctrls.perBankWrBursts::7            328258                       # Per bank write bursts
system.mem_ctrls.perBankWrBursts::8            328294                       # Per bank write bursts
system.mem_ctrls.perBankWrBursts::9            328424                       # Per bank write bursts
system.mem_ctrls.perBankWrBursts::10           328529                       # Per bank write bursts
system.mem_ctrls.perBankWrBursts::11           328504                       # Per bank write bursts
system.mem_ctrls.perBankWrBursts::12           328512                       # Per bank write bursts
system.mem_ctrls.perBankWrBursts::13           328512                       # Per bank write bursts
system.mem_ctrls.perBankWrBursts::14           328494                       # Per bank write bursts
system.mem_ctrls.perBankWrBursts::15           328327                       # Per bank write bursts
system.mem_ctrls.avgRdQLen                       1.01                       # Average read queue length when enqueuing
system.mem_ctrls.avgWrQLen                      25.96                       # Average write queue length when enqueuing
system.mem_ctrls.totQLat                  58340196750                       # Total ticks spent queuing
system.mem_ctrls.totBusLat                26441340000                       # Total ticks spent in databus transfers
system.mem_ctrls.totMemAccLat            157495221750                       # Total ticks spent from burst creation until serviced by the DRAM
system.mem_ctrls.avgQLat                     11032.00                       # Average queueing delay per DRAM burst
system.mem_ctrls.avgBusLat                    5000.00                       # Average bus latency per DRAM burst
system.mem_ctrls.avgMemAccLat                29782.00                       # Average memory access latency per DRAM burst
system.mem_ctrls.numRdRetry                         0                       # Number of times read queue was full causing retry
system.mem_ctrls.numWrRetry                         0                       # Number of times write queue was full causing retry
system.mem_ctrls.readRowHits                  4862134                       # Number of row buffer hits during reads
system.mem_ctrls.writeRowHits                 4877132                       # Number of row buffer hits during writes
system.mem_ctrls.readRowHitRate                 91.94                       # Row buffer hit rate for reads
system.mem_ctrls.writeRowHitRate                92.82                       # Row buffer hit rate for writes
system.mem_ctrls.readPktSize::0                     0                       # Read request sizes (log2)
system.mem_ctrls.readPktSize::1                     0                       # Read request sizes (log2)
system.mem_ctrls.readPktSize::2                     0                       # Read request sizes (log2)
system.mem_ctrls.readPktSize::3                     0                       # Read request sizes (log2)
system.mem_ctrls.readPktSize::4                     0                       # Read request sizes (log2)
system.mem_ctrls.readPktSize::5                     0                       # Read request sizes (log2)
system.mem_ctrls.readPktSize::6               5288268                       # Read request sizes (log2)
system.mem_ctrls.writePktSize::0                    0                       # Write request sizes (log2)
system.mem_ctrls.writePktSize::1                    0                       # Write request sizes (log2)
system.mem_ctrls.writePktSize::2                    0                       # Write request sizes (log2)
system.mem_ctrls.writePktSize::3                    0                       # Write request sizes (log2)
system.mem_ctrls.writePktSize::4                    0                       # Write request sizes (log2)
system.mem_ctrls.writePktSize::5                    0                       # Write request sizes (log2)
system.mem_ctrls.writePktSize::6              5254459                       # Write request sizes (log2)
system.mem_ctrls.rdQLenPdf::0                 5287292                       # What read queue length does an incoming req see
system.mem_ctrls.rdQLenPdf::1                     950                       # What read queue length does an incoming req see
system.mem_ctrls.rdQLenPdf::2                      25                       # What read queue length does an incoming req see
system.mem_ctrls.rdQLenPdf::3                       1                       # What read queue length does an incoming req see
system.mem_ctrls.rdQLenPdf::4                       0                       # What read queue length does an incoming req see
system.mem_ctrls.rdQLenPdf::5                       0                       # What read queue length does an incoming req see
system.mem_ctrls.rdQLenPdf::6                       0                       # What read queue length does an incoming req see
system.mem_ctrls.rdQLenPdf::7                       0                       # What read queue length does an incoming req see
system.mem_ctrls.rdQLenPdf::8                       0                       # What read queue length does an incoming req see
system.mem_ctrls.rdQLenPdf::9                       0                       # What read queue length does an incoming req see
system.mem_ctrls.rdQLenPdf::10                      0                       # What read queue length does an incoming req see
system.mem_ctrls.rdQLenPdf::11                      0                       # What read queue length does an incoming req see
system.mem_ctrls.rdQLenPdf::12                      0                       # What read queue length does an incoming req see
system.mem_ctrls.rdQLenPdf::13                      0                       # What read queue length does an incoming req see
system.mem_ctrls.rdQLenPdf::14                      0                       # What read queue length does an incoming req see
system.mem_ctrls.rdQLenPdf::15                      0                       # What read queue length does an incoming req see
system.mem_ctrls.rdQLenPdf::16                      0                       # What read queue length does an incoming req see
system.mem_ctrls.rdQLenPdf::17                      0                       # What read queue length does an incoming req see
system.mem_ctrls.rdQLenPdf::18                      0                       # What read queue length does an incoming req see
system.mem_ctrls.rdQLenPdf::19                      0                       # What read queue length does an incoming req see
system.mem_ctrls.rdQLenPdf::20                      0                       # What read queue length does an incoming req see
system.mem_ctrls.rdQLenPdf::21                      0                       # What read queue length does an incoming req see
system.mem_ctrls.rdQLenPdf::22                      0                       # What read queue length does an incoming req see
system.mem_ctrls.rdQLenPdf::23                      0                       # What read queue length does an incoming req see
system.mem_ctrls.rdQLenPdf::24                      0                       # What read queue length does an incoming req see
system.mem_ctrls.rdQLenPdf::25                      0                       # What read queue length does an incoming req see
system.mem_ctrls.rdQLenPdf::26                      0                       # What read queue length does an incoming req see
system.mem_ctrls.rdQLenPdf::27                      0                       # What read queue length does an incoming req see
system.mem_ctrls.rdQLenPdf::28                      0                       # What read queue length does an incoming req see
system.mem_ctrls.rdQLenPdf::29                      0                       # What read queue length does an incoming req see
system.mem_ctrls.rdQLenPdf::30                      0                       # What read queue length does an incoming req see
system.mem_ctrls.rdQLenPdf::31                      0                       # What read queue length does an incoming req see
system.mem_ctrls.wrQLenPdf::0                       1                       # What write queue length does an incoming req see
system.mem_ctrls.wrQLenPdf::1                       1                       # What write queue length does an incoming req see
system.mem_ctrls.wrQLenPdf::2                       1                       # What write queue length does an incoming req see
system.mem_ctrls.wrQLenPdf::3                       1                       # What write queue length does an incoming req see
system.mem_ctrls.wrQLenPdf::4                       1                       # What write queue length does an incoming req see
system.mem_ctrls.wrQLenPdf::5                       1                       # What write queue length does an incoming req see
system.mem_ctrls.wrQLenPdf::6                       1                       # What write queue length does an incoming req see
system.mem_ctrls.wrQLenPdf::7                       1                       # What write queue length does an incoming req see
system.mem_ctrls.wrQLenPdf::8                       1                       # What write queue length does an incoming req see
system.mem_ctrls.wrQLenPdf::9                       1                       # What write queue length does an incoming req see
system.mem_ctrls.wrQLenPdf::10                      1                       # What write queue length does an incoming req see
system.mem_ctrls.wrQLenPdf::11                      1                       # What write queue length does an incoming req see
system.mem_ctrls.wrQLenPdf::12                      1                       # What write queue length does an incoming req see
system.mem_ctrls.wrQLenPdf::13                      1                       # What write queue length does an incoming req see
system.mem_ctrls.wrQLenPdf::14                      1                       # What write queue length does an incoming req see
system.mem_ctrls.wrQLenPdf::15                    475                       # What write queue length does an incoming req see
system.mem_ctrls.wrQLenPdf::16                    475                       # What write queue length does an incoming req see
system.mem_ctrls.wrQLenPdf::17                 324655                       # What write queue length does an incoming req see
system.mem_ctrls.wrQLenPdf::18                 328310                       # What write queue length does an incoming req see
system.mem_ctrls.wrQLenPdf::19                 328316                       # What write queue length does an incoming req see
system.mem_ctrls.wrQLenPdf::20                 328319                       # What write queue length does an incoming req see
system.mem_ctrls.wrQLenPdf::21                 328316                       # What write queue length does an incoming req see
system.mem_ctrls.wrQLenPdf::22                 328315                       # What write queue length does an incoming req see
system.mem_ctrls.wrQLenPdf::23                 328351                       # What write queue length does an incoming req see
system.mem_ctrls.wrQLenPdf::24                 328317                       # What write queue length does an incoming req see
system.mem_ctrls.wrQLenPdf::25                 332395                       # What write queue length does an incoming req see
system.mem_ctrls.wrQLenPdf::26                 328318                       # What write queue length does an incoming req see
system.mem_ctrls.wrQLenPdf::27                 328314                       # What write queue length does an incoming req see
system.mem_ctrls.wrQLenPdf::28                 328315                       # What write queue length does an incoming req see
system.mem_ctrls.wrQLenPdf::29                 328314                       # What write queue length does an incoming req see
system.mem_ctrls.wrQLenPdf::30                 328313                       # What write queue length does an incoming req see
system.mem_ctrls.wrQLenPdf::31                 328313                       # What write queue length does an incoming req see
system.mem_ctrls.wrQLenPdf::32                 328313                       # What write queue length does an incoming req see
system.mem_ctrls.wrQLenPdf::33                      0                       # What write queue length does an incoming req see
system.mem_ctrls.wrQLenPdf::34                      0                       # What write queue length does an incoming req see
system.mem_ctrls.wrQLenPdf::35                      0                       # What write queue length does an incoming req see
system.mem_ctrls.wrQLenPdf::36                      0                       # What write queue length does an incoming req see
system.mem_ctrls.wrQLenPdf::37                      0                       # What write queue length does an incoming req see
system.mem_ctrls.wrQLenPdf::38                      0                       # What write queue length does an incoming req see
system.mem_ctrls.wrQLenPdf::39                      0                       # What write queue length does an incoming req see
system.mem_ctrls.wrQLenPdf::40                      0                       # What write queue length does an incoming req see
system.mem_ctrls.wrQLenPdf::41                      0                       # What write queue length does an incoming req see
system.mem_ctrls.wrQLenPdf::42                      0                       # What write queue length does an incoming req see
system.mem_ctrls.wrQLenPdf::43                      0                       # What write queue length does an incoming req see
system.mem_ctrls.wrQLenPdf::44                      0                       # What write queue length does an incoming req see
system.mem_ctrls.wrQLenPdf::45                      0                       # What write queue length does an incoming req see
system.mem_ctrls.wrQLenPdf::46                      0                       # What write queue length does an incoming req see
system.mem_ctrls.wrQLenPdf::47                      0                       # What write queue length does an incoming req see
system.mem_ctrls.wrQLenPdf::48                      0                       # What write queue length does an incoming req see
system.mem_ctrls.wrQLenPdf::49                      0                       # What write queue length does an incoming req see
system.mem_ctrls.wrQLenPdf::50                      0                       # What write queue length does an incoming req see
system.mem_ctrls.wrQLenPdf::51                      0                       # What write queue length does an incoming req see
system.mem_ctrls.wrQLenPdf::52                      0                       # What write queue length does an incoming req see
system.mem_ctrls.wrQLenPdf::53                      0                       # What write queue length does an incoming req see
system.mem_ctrls.wrQLenPdf::54                      0                       # What write queue length does an incoming req see
system.mem_ctrls.wrQLenPdf::55                      0                       # What write queue length does an incoming req see
system.mem_ctrls.wrQLenPdf::56                      0                       # What write queue length does an incoming req see
system.mem_ctrls.wrQLenPdf::57                      0                       # What write queue length does an incoming req see
system.mem_ctrls.wrQLenPdf::58                      0                       # What write queue length does an incoming req see
system.mem_ctrls.wrQLenPdf::59                      0                       # What write queue length does an incoming req see
system.mem_ctrls.wrQLenPdf::60                      0                       # What write queue length does an incoming req see
system.mem_ctrls.wrQLenPdf::61                      0                       # What write queue length does an incoming req see
system.mem_ctrls.wrQLenPdf::62                      0                       # What write queue length does an incoming req see
system.mem_ctrls.wrQLenPdf::63                      0                       # What write queue length does an incoming req see
system.mem_ctrls.bytesPerActivate::samples       803435                       # Bytes accessed per row activation
system.mem_ctrls.bytesPerActivate::mean    839.810066                       # Bytes accessed per row activation
system.mem_ctrls.bytesPerActivate::gmean   743.725026                       # Bytes accessed per row activation
system.mem_ctrls.bytesPerActivate::stdev   293.075588                       # Bytes accessed per row activation
system.mem_ctrls.bytesPerActivate::0-127        17332      2.16%      2.16% # Bytes accessed per row activation
system.mem_ctrls.bytesPerActivate::128-255        28350      3.53%      5.69% # Bytes accessed per row activation
system.mem_ctrls.bytesPerActivate::256-383        47588      5.92%     11.61% # Bytes accessed per row activation
system.mem_ctrls.bytesPerActivate::384-511        39846      4.96%     16.57% # Bytes accessed per row activation
system.mem_ctrls.bytesPerActivate::512-639        47401      5.90%     22.47% # Bytes accessed per row activation
system.mem_ctrls.bytesPerActivate::640-767        41230      5.13%     27.60% # Bytes accessed per row activation
system.mem_ctrls.bytesPerActivate::768-895        33672      4.19%     31.79% # Bytes accessed per row activation
system.mem_ctrls.bytesPerActivate::896-1023        23398      2.91%     34.70% # Bytes accessed per row activation
system.mem_ctrls.bytesPerActivate::1024-1151       524618     65.30%    100.00% # Bytes accessed per row activation
system.mem_ctrls.bytesPerActivate::total       803435                       # Bytes accessed per row activation
system.mem_ctrls.rdPerTurnAround::samples       328313                       # Reads before turning the bus around for writes
system.mem_ctrls.rdPerTurnAround::mean      16.107373                       # Reads before turning the bus around for writes
system.mem_ctrls.rdPerTurnAround::gmean     16.007503                       # Reads before turning the bus around for writes
system.mem_ctrls.rdPerTurnAround::stdev     36.921984                       # Reads before turning the bus around for writes
system.mem_ctrls.rdPerTurnAround::0-1023       328308    100.00%    100.00% # Reads before turning the bus around for writes
system.mem_ctrls.rdPerTurnAround::1024-2047            2      0.00%    100.00% # Reads before turning the bus around for writes
[...]
system.cpu.icache.tags.warmup_cycle             87500                       # Cycle when the warmup percentage was hit.
system.cpu.icache.tags.occ_blocks::.cpu.inst   429.428108                       # Average occupied blocks per requestor
system.cpu.icache.tags.occ_percent::.cpu.inst     0.838727                       # Average percentage of cache occupancy
system.cpu.icache.tags.occ_percent::total     0.838727                       # Average percentage of cache occupancy
system.cpu.icache.tags.occ_task_id_blocks::1024          463                       # Occupied blocks per task id
system.cpu.icache.tags.age_task_id_blocks_1024::4          463                       # Occupied blocks per task id
system.cpu.icache.tags.occ_task_id_percent::1024     0.904297                       # Percentage of cache occupancy per task id
system.cpu.icache.tags.tag_accesses          64276999                       # Number of tag accesses
system.cpu.icache.tags.data_accesses         64276999                       # Number of data accesses
system.cpu.dtb.walker.pwrStateResidencyTicks::UNDEFINED 515917372500                       # Cumulative time (in ticks) in various power states
system.cpu.dtb.stage2_mmu.stage2_tlb.walker.pwrStateResidencyTicks::UNDEFINED 515917372500                       # Cumulative time (in ticks) in various power states
system.cpu.dcache.pwrStateResidencyTicks::UNDEFINED 515917372500                       # Cumulative time (in ticks) in various power states
system.cpu.dcache.demand_hits::.cpu.data     76204321                       # number of demand (read+write) hits
system.cpu.dcache.demand_hits::total         76204321                       # number of demand (read+write) hits
system.cpu.dcache.overall_hits::.cpu.data     76204360                       # number of overall hits
system.cpu.dcache.overall_hits::total        76204360                       # number of overall hits
system.cpu.dcache.demand_misses::.cpu.data     10572386                       # number of demand (read+write) misses
system.cpu.dcache.demand_misses::total       10572386                       # number of demand (read+write) misses
system.cpu.dcache.overall_misses::.cpu.data     10572428                       # number of overall misses
system.cpu.dcache.overall_misses::total      10572428                       # number of overall misses
system.cpu.dcache.demand_miss_latency::.cpu.data 880559841500                       # number of demand (read+write) miss cycles
system.cpu.dcache.demand_miss_latency::total 880559841500                       # number of demand (read+write) miss cycles
system.cpu.dcache.overall_miss_latency::.cpu.data 880559841500                       # number of overall miss cycles
system.cpu.dcache.overall_miss_latency::total 880559841500                       # number of overall miss cycles
system.cpu.dcache.demand_accesses::.cpu.data     86776707                       # number of demand (read+write) accesses
system.cpu.dcache.demand_accesses::total     86776707                       # number of demand (read+write) accesses
system.cpu.dcache.overall_accesses::.cpu.data     86776788                       # number of overall (read+write) accesses
system.cpu.dcache.overall_accesses::total     86776788                       # number of overall (read+write) accesses
system.cpu.dcache.demand_miss_rate::.cpu.data     0.121834                       # miss rate for demand accesses
system.cpu.dcache.demand_miss_rate::total     0.121834                       # miss rate for demand accesses
system.cpu.dcache.overall_miss_rate::.cpu.data     0.121835                       # miss rate for overall accesses
system.cpu.dcache.overall_miss_rate::total     0.121835                       # miss rate for overall accesses
system.cpu.dcache.demand_avg_miss_latency::.cpu.data 83288.657972                       # average overall miss latency
system.cpu.dcache.demand_avg_miss_latency::total 83288.657972                       # average overall miss latency
system.cpu.dcache.overall_avg_miss_latency::.cpu.data 83288.327100                       # average overall miss latency
system.cpu.dcache.overall_avg_miss_latency::total 83288.327100                       # average overall miss latency
system.cpu.dcache.blocked_cycles::no_mshrs          139                       # number of cycles access was blocked
system.cpu.dcache.blocked_cycles::no_targets            0                       # number of cycles access was blocked
system.cpu.dcache.blocked::no_mshrs                 1                       # number of cycles access was blocked
system.cpu.dcache.blocked::no_targets               0                       # number of cycles access was blocked
system.cpu.dcache.avg_blocked_cycles::no_mshrs          139                       # average number of cycles each access was blocked
system.cpu.dcache.avg_blocked_cycles::no_targets          nan                       # average number of cycles each access was blocked
system.cpu.dcache.writebacks::.writebacks      5286228                       # number of writebacks
system.cpu.dcache.writebacks::total           5286228                       # number of writebacks
system.cpu.dcache.demand_mshr_hits::.cpu.data      5284776                       # number of demand (read+write) MSHR hits
system.cpu.dcache.demand_mshr_hits::total      5284776                       # number of demand (read+write) MSHR hits
system.cpu.dcache.overall_mshr_hits::.cpu.data      5284776                       # number of overall MSHR hits
system.cpu.dcache.overall_mshr_hits::total      5284776                       # number of overall MSHR hits
system.cpu.dcache.demand_mshr_misses::.cpu.data      5287610                       # number of demand (read+write) MSHR misses
system.cpu.dcache.demand_mshr_misses::total      5287610                       # number of demand (read+write) MSHR misses
system.cpu.dcache.overall_mshr_misses::.cpu.data      5287633                       # number of overall MSHR misses
system.cpu.dcache.overall_mshr_misses::total      5287633                       # number of overall MSHR misses
system.cpu.dcache.demand_mshr_miss_latency::.cpu.data 433794053000                       # number of demand (read+write) MSHR miss cycles
system.cpu.dcache.demand_mshr_miss_latency::total 433794053000                       # number of demand (read+write) MSHR miss cycles
system.cpu.dcache.overall_mshr_miss_latency::.cpu.data 433795784500                       # number of overall MSHR miss cycles
system.cpu.dcache.overall_mshr_miss_latency::total 433795784500                       # number of overall MSHR miss cycles
system.cpu.dcache.demand_mshr_miss_rate::.cpu.data     0.060934                       # mshr miss rate for demand accesses
system.cpu.dcache.demand_mshr_miss_rate::total     0.060934                       # mshr miss rate for demand accesses
system.cpu.dcache.overall_mshr_miss_rate::.cpu.data     0.060934                       # mshr miss rate for overall accesses
system.cpu.dcache.overall_mshr_miss_rate::total     0.060934                       # mshr miss rate for overall accesses
system.cpu.dcache.demand_avg_mshr_miss_latency::.cpu.data 82039.721727                       # average overall mshr miss latency
system.cpu.dcache.demand_avg_mshr_miss_latency::total 82039.721727                       # average overall mshr miss latency
system.cpu.dcache.overall_avg_mshr_miss_latency::.cpu.data 82039.692335                       # average overall mshr miss latency
system.cpu.dcache.overall_avg_mshr_miss_latency::total 82039.692335                       # average overall mshr miss latency
system.cpu.dcache.replacements                5286610                       # number of replacements
system.cpu.dcache.ReadReq_hits::.cpu.data      2050301                       # number of ReadReq hits
system.cpu.dcache.ReadReq_hits::total         2050301                       # number of ReadReq hits
system.cpu.dcache.ReadReq_misses::.cpu.data          445                       # number of ReadReq misses
system.cpu.dcache.ReadReq_misses::total           445                       # number of ReadReq misses
system.cpu.dcache.ReadReq_miss_latency::.cpu.data     32550500                       # number of ReadReq miss cycles
system.cpu.dcache.ReadReq_miss_latency::total     32550500                       # number of ReadReq miss cycles
system.cpu.dcache.ReadReq_accesses::.cpu.data      2050746                       # number of ReadReq accesses(hits+misses)
system.cpu.dcache.ReadReq_accesses::total      2050746                       # number of ReadReq accesses(hits+misses)
system.cpu.dcache.ReadReq_miss_rate::.cpu.data     0.000217                       # miss rate for ReadReq accesses
system.cpu.dcache.ReadReq_miss_rate::total     0.000217                       # miss rate for ReadReq accesses
system.cpu.dcache.ReadReq_avg_miss_latency::.cpu.data 73147.191011                       # average ReadReq miss latency
system.cpu.dcache.ReadReq_avg_miss_latency::total 73147.191011                       # average ReadReq miss latency
system.cpu.dcache.ReadReq_mshr_hits::.cpu.data           44                       # number of ReadReq MSHR hits
system.cpu.dcache.ReadReq_mshr_hits::total           44                       # number of ReadReq MSHR hits
system.cpu.dcache.ReadReq_mshr_misses::.cpu.data          401                       # number of ReadReq MSHR misses
system.cpu.dcache.ReadReq_mshr_misses::total          401                       # number of ReadReq MSHR misses
system.cpu.dcache.ReadReq_mshr_miss_latency::.cpu.data     29585000                       # number of ReadReq MSHR miss cycles
system.cpu.dcache.ReadReq_mshr_miss_latency::total     29585000                       # number of ReadReq MSHR miss cycles
system.cpu.dcache.ReadReq_mshr_miss_rate::.cpu.data     0.000196                       # mshr miss rate for ReadReq accesses
system.cpu.dcache.ReadReq_mshr_miss_rate::total     0.000196                       # mshr miss rate for ReadReq accesses
system.cpu.dcache.ReadReq_avg_mshr_miss_latency::.cpu.data 73778.054863                       # average ReadReq mshr miss latency
system.cpu.dcache.ReadReq_avg_mshr_miss_latency::total 73778.054863                       # average ReadReq mshr miss latency
system.cpu.dcache.WriteReq_hits::.cpu.data     74154020                       # number of WriteReq hits
system.cpu.dcache.WriteReq_hits::total       74154020                       # number of WriteReq hits
system.cpu.dcache.WriteReq_misses::.cpu.data     10571941                       # number of WriteReq misses
system.cpu.dcache.WriteReq_misses::total     10571941                       # number of WriteReq misses
system.cpu.dcache.WriteReq_miss_latency::.cpu.data 880527291000                       # number of WriteReq miss cycles
system.cpu.dcache.WriteReq_miss_latency::total 880527291000                       # number of WriteReq miss cycles
system.cpu.dcache.WriteReq_accesses::.cpu.data     84725961                       # number of WriteReq accesses(hits+misses)
system.cpu.dcache.WriteReq_accesses::total     84725961                       # number of WriteReq accesses(hits+misses)
system.cpu.dcache.WriteReq_miss_rate::.cpu.data     0.124778                       # miss rate for WriteReq accesses
system.cpu.dcache.WriteReq_miss_rate::total     0.124778                       # miss rate for WriteReq accesses
system.cpu.dcache.WriteReq_avg_miss_latency::.cpu.data 83289.084852                       # average WriteReq miss latency
system.cpu.dcache.WriteReq_avg_miss_latency::total 83289.084852                       # average WriteReq miss latency
system.cpu.dcache.WriteReq_mshr_hits::.cpu.data      5284732                       # number of WriteReq MSHR hits
system.cpu.dcache.WriteReq_mshr_hits::total      5284732                       # number of WriteReq MSHR hits
system.cpu.dcache.WriteReq_mshr_misses::.cpu.data      5287209                       # number of WriteReq MSHR misses
system.cpu.dcache.WriteReq_mshr_misses::total      5287209                       # number of WriteReq MSHR misses
system.cpu.dcache.WriteReq_mshr_miss_latency::.cpu.data 433764468000                       # number of WriteReq MSHR miss cycles
system.cpu.dcache.WriteReq_mshr_miss_latency::total 433764468000                       # number of WriteReq MSHR miss cycles
system.cpu.dcache.WriteReq_mshr_miss_rate::.cpu.data     0.062404                       # mshr miss rate for WriteReq accesses
system.cpu.dcache.WriteReq_mshr_miss_rate::total     0.062404                       # mshr miss rate for WriteReq accesses
system.cpu.dcache.WriteReq_avg_mshr_miss_latency::.cpu.data 82040.348320                       # average WriteReq mshr miss latency
system.cpu.dcache.WriteReq_avg_mshr_miss_latency::total 82040.348320                       # average WriteReq mshr miss latency
system.cpu.dcache.SoftPFReq_hits::.cpu.data           39                       # number of SoftPFReq hits
system.cpu.dcache.SoftPFReq_hits::total            39                       # number of SoftPFReq hits
system.cpu.dcache.SoftPFReq_misses::.cpu.data           42                       # number of SoftPFReq misses
system.cpu.dcache.SoftPFReq_misses::total           42                       # number of SoftPFReq misses
system.cpu.dcache.SoftPFReq_accesses::.cpu.data           81                       # number of SoftPFReq accesses(hits+misses)
system.cpu.dcache.SoftPFReq_accesses::total           81                       # number of SoftPFReq accesses(hits+misses)
system.cpu.dcache.SoftPFReq_miss_rate::.cpu.data     0.518519                       # miss rate for SoftPFReq accesses
system.cpu.dcache.SoftPFReq_miss_rate::total     0.518519                       # miss rate for SoftPFReq accesses
system.cpu.dcache.SoftPFReq_mshr_misses::.cpu.data           23                       # number of SoftPFReq MSHR misses
system.cpu.dcache.SoftPFReq_mshr_misses::total           23                       # number of SoftPFReq MSHR misses
system.cpu.dcache.SoftPFReq_mshr_miss_latency::.cpu.data      1731500                       # number of SoftPFReq MSHR miss cycles
system.cpu.dcache.SoftPFReq_mshr_miss_latency::total      1731500                       # number of SoftPFReq MSHR miss cycles
system.cpu.dcache.SoftPFReq_mshr_miss_rate::.cpu.data     0.283951                       # mshr miss rate for SoftPFReq accesses
system.cpu.dcache.SoftPFReq_mshr_miss_rate::total     0.283951                       # mshr miss rate for SoftPFReq accesses
system.cpu.dcache.SoftPFReq_avg_mshr_miss_latency::.cpu.data 75282.608696                       # average SoftPFReq mshr miss latency
system.cpu.dcache.SoftPFReq_avg_mshr_miss_latency::total 75282.608696                       # average SoftPFReq mshr miss latency
system.cpu.dcache.LoadLockedReq_hits::.cpu.data           33                       # number of LoadLockedReq hits
system.cpu.dcache.LoadLockedReq_hits::total           33                       # number of LoadLockedReq hits
system.cpu.dcache.LoadLockedReq_misses::.cpu.data            1                       # number of LoadLockedReq misses
system.cpu.dcache.LoadLockedReq_misses::total            1                       # number of LoadLockedReq misses
system.cpu.dcache.LoadLockedReq_miss_latency::.cpu.data        86000                       # number of LoadLockedReq miss cycles
system.cpu.dcache.LoadLockedReq_miss_latency::total        86000                       # number of LoadLockedReq miss cycles
system.cpu.dcache.LoadLockedReq_accesses::.cpu.data           34                       # number of LoadLockedReq accesses(hits+misses)
system.cpu.dcache.LoadLockedReq_accesses::total           34                       # number of LoadLockedReq accesses(hits+misses)
system.cpu.dcache.LoadLockedReq_miss_rate::.cpu.data     0.029412                       # miss rate for LoadLockedReq accesses
system.cpu.dcache.LoadLockedReq_miss_rate::total     0.029412                       # miss rate for LoadLockedReq accesses
system.cpu.dcache.LoadLockedReq_avg_miss_latency::.cpu.data        86000                       # average LoadLockedReq miss latency
system.cpu.dcache.LoadLockedReq_avg_miss_latency::total        86000                       # average LoadLockedReq miss latency
system.cpu.dcache.LoadLockedReq_mshr_misses::.cpu.data            1                       # number of LoadLockedReq MSHR misses
system.cpu.dcache.LoadLockedReq_mshr_misses::total            1                       # number of LoadLockedReq MSHR misses
system.cpu.dcache.LoadLockedReq_mshr_miss_latency::.cpu.data        85000                       # number of LoadLockedReq MSHR miss cycles
system.cpu.dcache.LoadLockedReq_mshr_miss_latency::total        85000                       # number of LoadLockedReq MSHR miss cycles
system.cpu.dcache.LoadLockedReq_mshr_miss_rate::.cpu.data     0.029412                       # mshr miss rate for LoadLockedReq accesses
system.cpu.dcache.LoadLockedReq_mshr_miss_rate::total     0.029412                       # mshr miss rate for LoadLockedReq accesses
system.cpu.dcache.LoadLockedReq_avg_mshr_miss_latency::.cpu.data        85000                       # average LoadLockedReq mshr miss latency
system.cpu.dcache.LoadLockedReq_avg_mshr_miss_latency::total        85000                       # average LoadLockedReq mshr miss latency
system.cpu.dcache.StoreCondReq_hits::.cpu.data           34                       # number of StoreCondReq hits
system.cpu.dcache.StoreCondReq_hits::total           34                       # number of StoreCondReq hits
system.cpu.dcache.StoreCondReq_accesses::.cpu.data           34                       # number of StoreCondReq accesses(hits+misses)
system.cpu.dcache.StoreCondReq_accesses::total           34                       # number of StoreCondReq accesses(hits+misses)
system.cpu.dcache.tags.pwrStateResidencyTicks::UNDEFINED 515917372500                       # Cumulative time (in ticks) in various power states
system.cpu.dcache.tags.tagsinuse          1023.475487                       # Cycle average of tags in use
system.cpu.dcache.tags.total_refs            81492061                       # Total number of references to valid blocks.
system.cpu.dcache.tags.sampled_refs           5287634                       # Sample count of references to valid blocks.
system.cpu.dcache.tags.avg_refs             15.411820                       # Average number of references to valid blocks.
system.cpu.dcache.tags.warmup_cycle            176500                       # Cycle when the warmup percentage was hit.
system.cpu.dcache.tags.occ_blocks::.cpu.data  1023.475487                       # Average occupied blocks per requestor
system.cpu.dcache.tags.occ_percent::.cpu.data     0.999488                       # Average percentage of cache occupancy
system.cpu.dcache.tags.occ_percent::total     0.999488                       # Average percentage of cache occupancy
system.cpu.dcache.tags.occ_task_id_blocks::1024         1024                       # Occupied blocks per task id
system.cpu.dcache.tags.age_task_id_blocks_1024::0          101                       # Occupied blocks per task id
system.cpu.dcache.tags.age_task_id_blocks_1024::1          923                       # Occupied blocks per task id
system.cpu.dcache.tags.occ_task_id_percent::1024            1                       # Percentage of cache occupancy per task id
system.cpu.dcache.tags.tag_accesses         178841346                       # Number of tag accesses
system.cpu.dcache.tags.data_accesses        178841346                       # Number of data accesses
system.cpu.itb.walker.pwrStateResidencyTicks::UNDEFINED 515917372500                       # Cumulative time (in ticks) in various power states
system.cpu.itb.stage2_mmu.stage2_tlb.walker.pwrStateResidencyTicks::UNDEFINED 515917372500                       # Cumulative time (in ticks) in various power states

---------- End Simulation Statistics   ----------
