
---------- Begin Simulation Statistics ----------
final_tick                                13465016000                       # Number of ticks from beginning of simulation (restored from checkpoints and never reset)
host_inst_rate                                  78009                       # Simulator instruction rate (inst/s)
host_mem_usage                                 683416                       # Number of bytes of host memory used
host_op_rate                                    85498                       # Simulator op (including micro ops) rate (op/s)
host_seconds                                   128.19                       # Real time elapsed on the host
host_tick_rate                              105038773                       # Simulator tick rate (ticks/s)
sim_freq                                 1000000000000                       # Frequency of simulated ticks
sim_insts                                    10000000                       # Number of instructions simulated
sim_ops                                      10960110                       # Number of ops (including micro ops) simulated
sim_seconds                                  0.013465                       # Number of seconds simulated
sim_ticks                                 13465016000                       # Number of ticks simulated
system.cpu.branchPred.BTBCorrect                    0                       # Number of correct BTB predictions (this stat may not work properly.
system.cpu.branchPred.BTBHitPct             98.976119                       # BTB Hit Percentage
system.cpu.branchPred.BTBHits                  377777                       # Number of BTB hits
system.cpu.branchPred.BTBLookups               381685                       # Number of BTB lookups
system.cpu.branchPred.RASInCorrect                 12                       # Number of incorrect RAS predictions.
system.cpu.branchPred.condIncorrect              7490                       # Number of conditional branches incorrect
system.cpu.branchPred.condPredicted            691233                       # Number of conditional branches predicted
system.cpu.branchPred.indirectHits                147                       # Number of indirect target hits.
system.cpu.branchPred.indirectLookups             352                       # Number of indirect predictor lookups.
system.cpu.branchPred.indirectMisses              205                       # Number of indirect misses.
system.cpu.branchPred.lookups                  807722                       # Number of BP lookups
system.cpu.branchPred.usedRAS                    7083                       # Number of times the RAS was used to get a target.
system.cpu.branchPredindirectMispredicted          192                       # Number of mispredicted indirect branches.
system.cpu.committedInsts                    10000000                       # Number of instructions committed
system.cpu.committedOps                      10960110                       # Number of ops (including micro ops) committed
system.cpu.cpi                               2.693003                       # CPI: cycles per instruction
system.cpu.discardedOps                         15833                       # Number of ops (including micro ops) which were discarded before commit
system.cpu.dtb.accesses                             0                       # DTB accesses
system.cpu.dtb.align_faults                         0                       # Number of TLB faults due to alignment restrictions
system.cpu.dtb.domain_faults                        0                       # Number of TLB faults due to domain restrictions
system.cpu.dtb.flush_entries                        0                       # Number of entries that have been flushed from TLB
system.cpu.dtb.flush_tlb                            0                       # Number of times complete TLB was flushed
system.cpu.dtb.flush_tlb_asid                       0                       # Number of times TLB was flushed by ASID
system.cpu.dtb.flush_tlb_mva                        0                       # Number of times TLB was flushed by MVA
system.cpu.dtb.flush_tlb_mva_asid                   0                       # Number of times TLB was flushed by MVA & ASID
system.cpu.dtb.hits                                 0                       # DTB hits
system.cpu.dtb.inst_accesses                        0                       # ITB inst accesses
system.cpu.dtb.inst_hits                            0                       # ITB inst hits
system.cpu.dtb.inst_misses                          0                       # ITB inst misses
system.cpu.dtb.misses                               0                       # DTB misses
system.cpu.dtb.perms_faults                         0                       # Number of TLB faults due to permissions restrictions
system.cpu.dtb.prefetch_faults                      0                       # Number of TLB faults due to prefetch
system.cpu.dtb.read_accesses                        0                       # DTB read accesses
system.cpu.dtb.read_hits                            0                       # DTB read hits
system.cpu.dtb.read_misses                          0                       # DTB read misses
system.cpu.dtb.stage2_mmu.stage2_tlb.accesses            0                       # DTB accesses
system.cpu.dtb.stage2_mmu.stage2_tlb.align_faults            0                       # Number of TLB faults due to alignment restrictions
system.cpu.dtb.stage2_mmu.stage2_tlb.domain_faults            0                       # Number of TLB faults due to domain restrictions
system.cpu.dtb.stage2_mmu.stage2_tlb.flush_entries            0                       # Number of entries that have been flushed from TLB
system.cpu.dtb.stage2_mmu.stage2_tlb.flush_tlb            0                       # Number of times complete TLB was flushed
system.cpu.dtb.stage2_mmu.stage2_tlb.flush_tlb_asid            0                       # Number of times TLB was flushed by ASID
system.cpu.dtb.stage2_mmu.stage2_tlb.flush_tlb_mva            0                       # Number of times TLB was flushed by MVA
system.cpu.dtb.stage2_mmu.stage2_tlb.flush_tlb_mva_asid            0                       # Number of times TLB was flushed by MVA & ASID
system.cpu.dtb.stage2_mmu.stage2_tlb.hits            0                       # DTB hits
system.cpu.dtb.stage2_mmu.stage2_tlb.inst_accesses            0                       # ITB inst accesses
system.cpu.dtb.stage2_mmu.stage2_tlb.inst_hits            0                       # ITB inst hits
system.cpu.dtb.stage2_mmu.stage2_tlb.inst_misses            0                       # ITB inst misses
system.cpu.dtb.stage2_mmu.stage2_tlb.misses            0                       # DTB misses
system.cpu.dtb.stage2_mmu.stage2_tlb.perms_faults            0                       # Number of TLB faults due to permissions restrictions
system.cpu.dtb.stage2_mmu.stage2_tlb.prefetch_faults            0                       # Number of TLB faults due to prefetch
system.cpu.dtb.stage2_mmu.stage2_tlb.read_accesses            0                       # DTB read accesses
system.cpu.dtb.stage2_mmu.stage2_tlb.read_hits            0                       # DTB read hits
system.cpu.dtb.stage2_mmu.stage2_tlb.read_misses            0                       # DTB read misses
system.cpu.dtb.stage2_mmu.stage2_tlb.walker.walkRequestOrigin_Requested::Data            0                       # Table walker requests started/completed, data/inst
system.cpu.dtb.stage2_mmu.stage2_tlb.walker.walkRequestOrigin_Requested::Inst            0                       # Table walker requests started/completed, data/inst
system.cpu.dtb.stage2_mmu.stage2_tlb.walker.walkRequestOrigin_Requested::total            0                       # Table walker requests started/completed, data/inst
system.cpu.dtb.stage2_mmu.stage2_tlb.walker.walkRequestOrigin_Completed::Data            0                       # Table walker requests started/completed, data/inst
system.cpu.dtb.stage2_mmu.stage2_tlb.walker.walkRequestOrigin_Completed::Inst            0                       # Table walker requests started/completed, data/inst
system.cpu.dtb.stage2_mmu.stage2_tlb.walker.walkRequestOrigin_Completed::total            0                       # Table walker requests started/completed, data/inst
system.cpu.dtb.stage2_mmu.stage2_tlb.walker.walkRequestOrigin::total            0                       # Table walker requests started/completed, data/inst
system.cpu.dtb.stage2_mmu.stage2_tlb.walker.walks            0                       # Table walker walks requested
system.cpu.dtb.stage2_mmu.stage2_tlb.write_accesses            0                       # DTB write accesses
system.cpu.dtb.stage2_mmu.stage2_tlb.write_hits            0                       # DTB write hits
system.cpu.dtb.stage2_mmu.stage2_tlb.write_misses            0                       # DTB write misses
system.cpu.dtb.walker.walkRequestOrigin_Requested::Data            0                       # Table walker requests started/completed, data/inst
system.cpu.dtb.walker.walkRequestOrigin_Requested::Inst            0                       # Table walker requests started/completed, data/inst
system.cpu.dtb.walker.walkRequestOrigin_Requested::total            0                       # Table walker requests started/completed, data/inst
system.cpu.dtb.walker.walkRequestOrigin_Completed::Data            0                       # Table walker requests started/completed, data/inst
system.cpu.dtb.walker.walkRequestOrigin_Completed::Inst            0                       # Table walker requests started/completed, data/inst
system.cpu.dtb.walker.walkRequestOrigin_Completed::total            0                       # Table walker requests started/completed, data/inst
system.cpu.dtb.walker.walkRequestOrigin::total            0                       # Table walker requests started/completed, data/inst
system.cpu.dtb.walker.walks                         0                       # Table walker walks requested
system.cpu.dtb.write_accesses                       0                       # DTB write accesses
system.cpu.dtb.write_hits                           0                       # DTB write hits
system.cpu.dtb.write_misses                         0                       # DTB write misses
system.cpu.fetch2.amo_instructions                  0                       # Number of memory atomic instructions successfully decoded
system.cpu.fetch2.fp_instructions                   0                       # Number of floating point instructions successfully decoded
system.cpu.fetch2.int_instructions            2262755                       # Number of integer instructions successfully decoded
system.cpu.fetch2.load_instructions           5744266                       # Number of memory load instructions successfully decoded
system.cpu.fetch2.store_instructions          1187340                       # Number of memory store instructions successfully decoded
system.cpu.fetch2.vec_instructions                  0                       # Number of SIMD instructions successfully decoded
system.cpu.idleCycles                        11647129                       # Total number of cycles that the object has spent stopped
system.cpu.ipc                               0.371333                       # IPC: instructions per cycle
system.cpu.itb.accesses                             0                       # DTB accesses
system.cpu.itb.align_faults                         0                       # Number of TLB faults due to alignment restrictions
system.cpu.itb.domain_faults                        0                       # Number of TLB faults due to domain restrictions
system.cpu.itb.flush_entries                        0                       # Number of entries that have been flushed from TLB
system.cpu.itb.flush_tlb                            0                       # Number of times complete TLB was flushed
system.cpu.itb.flush_tlb_asid                       0                       # Number of times TLB was flushed by ASID
system.cpu.itb.flush_tlb_mva                        0                       # Number of times TLB was flushed by MVA
system.cpu.itb.flush_tlb_mva_asid                   0                       # Number of times TLB was flushed by MVA & ASID
system.cpu.itb.hits                                 0                       # DTB hits
system.cpu.itb.inst_accesses                        0                       # ITB inst accesses
system.cpu.itb.inst_hits                            0                       # ITB inst hits
system.cpu.itb.inst_misses                          0                       # ITB inst misses
system.cpu.itb.misses                               0                       # DTB misses
system.cpu.itb.perms_faults                         0                       # Number of TLB faults due to permissions restrictions
system.cpu.itb.prefetch_faults                      0                       # Number of TLB faults due to prefetch
system.cpu.itb.read_accesses                        0                       # DTB read accesses
system.cpu.itb.read_hits                            0                       # DTB read hits
system.cpu.itb.read_misses                          0                       # DTB read misses
system.cpu.itb.stage2_mmu.stage2_tlb.accesses            0                       # DTB accesses
system.cpu.itb.stage2_mmu.stage2_tlb.align_faults            0                       # Number of TLB faults due to alignment restrictions
system.cpu.itb.stage2_mmu.stage2_tlb.domain_faults            0                       # Number of TLB faults due to domain restrictions
system.cpu.itb.stage2_mmu.stage2_tlb.flush_entries            0                       # Number of entries that have been flushed from TLB
system.cpu.itb.stage2_mmu.stage2_tlb.flush_tlb            0                       # Number of times complete TLB was flushed
system.cpu.itb.stage2_mmu.stage2_tlb.flush_tlb_asid            0                       # Number of times TLB was flushed by ASID
system.cpu.itb.stage2_mmu.stage2_tlb.flush_tlb_mva            0                       # Number of times TLB was flushed by MVA
system.cpu.itb.stage2_mmu.stage2_tlb.flush_tlb_mva_asid            0                       # Number of times TLB was flushed by MVA & ASID
system.cpu.itb.stage2_mmu.stage2_tlb.hits            0                       # DTB hits
system.cpu.itb.stage2_mmu.stage2_tlb.inst_accesses            0                       # ITB inst accesses
system.cpu.itb.stage2_mmu.stage2_tlb.inst_hits            0                       # ITB inst hits
system.cpu.itb.stage2_mmu.stage2_tlb.inst_misses            0                       # ITB inst misses
system.cpu.itb.stage2_mmu.stage2_tlb.misses            0                       # DTB misses
system.cpu.itb.stage2_mmu.stage2_tlb.perms_faults            0                       # Number of TLB faults due to permissions restrictions
system.cpu.itb.stage2_mmu.stage2_tlb.prefetch_faults            0                       # Number of TLB faults due to prefetch
system.cpu.itb.stage2_mmu.stage2_tlb.read_accesses            0                       # DTB read accesses
system.cpu.itb.stage2_mmu.stage2_tlb.read_hits            0                       # DTB read hits
system.cpu.itb.stage2_mmu.stage2_tlb.read_misses            0                       # DTB read misses
system.cpu.itb.stage2_mmu.stage2_tlb.walker.walkRequestOrigin_Requested::Data            0                       # Table walker requests started/completed, data/inst
system.cpu.itb.stage2_mmu.stage2_tlb.walker.walkRequestOrigin_Requested::Inst            0                       # Table walker requests started/completed, data/inst
system.cpu.itb.stage2_mmu.stage2_tlb.walker.walkRequestOrigin_Requested::total            0                       # Table walker requests started/completed, data/inst
system.cpu.itb.stage2_mmu.stage2_tlb.walker.walkRequestOrigin_Completed::Data            0                       # Table walker requests started/completed, data/inst
system.cpu.itb.stage2_mmu.stage2_tlb.walker.walkRequestOrigin_Completed::Inst            0                       # Table walker requests started/completed, data/inst
system.cpu.itb.stage2_mmu.stage2_tlb.walker.walkRequestOrigin_Completed::total            0                       # Table walker requests started/completed, data/inst
system.cpu.itb.stage2_mmu.stage2_tlb.walker.walkRequestOrigin::total            0                       # Table walker requests started/completed, data/inst
system.cpu.itb.stage2_mmu.stage2_tlb.walker.walks            0                       # Table walker walks requested
system.cpu.itb.stage2_mmu.stage2_tlb.write_accesses            0                       # DTB write accesses
system.cpu.itb.stage2_mmu.stage2_tlb.write_hits            0                       # DTB write hits
system.cpu.itb.stage2_mmu.stage2_tlb.write_misses            0                       # DTB write misses
system.cpu.itb.walker.walkRequestOrigin_Requested::Data            0                       # Table walker requests started/completed, data/inst
system.cpu.itb.walker.walkRequestOrigin_Requested::Inst            0                       # Table walker requests started/completed, data/inst
system.cpu.itb.walker.walkRequestOrigin_Requested::total            0                       # Table walker requests started/completed, data/inst
system.cpu.itb.walker.walkRequestOrigin_Completed::Data            0                       # Table walker requests started/completed, data/inst
system.cpu.itb.walker.walkRequestOrigin_Completed::Inst            0                       # Table walker requests started/completed, data/inst
system.cpu.itb.walker.walkRequestOrigin_Completed::total            0                       # Table walker requests started/completed, data/inst
system.cpu.itb.walker.walkRequestOrigin::total            0                       # Table walker requests started/completed, data/inst
system.cpu.itb.walker.walks                         0                       # Table walker walks requested
system.cpu.itb.write_accesses                       0                       # DTB write accesses
system.cpu.itb.write_hits                           0                       # DTB write hits
system.cpu.itb.write_misses                         0                       # DTB write misses
system.cpu.numCycles                         26930032                       # number of cpu cycles simulated
system.cpu.numFetchSuspends                         0                       # Number of times Execute suspended instruction fetching
system.cpu.numWorkItemsCompleted                    0                       # number of work items this cpu completed
system.cpu.numWorkItemsStarted                      0                       # number of work items this cpu started
system.cpu.op_class_0::No_OpClass                   0      0.00%      0.00% # Class of committed instruction
system.cpu.op_class_0::IntAlu                 3179297     29.01%     29.01% # Class of committed instruction
system.cpu.op_class_0::IntMult                     71      0.00%     29.01% # Class of committed instruction
system.cpu.op_class_0::IntDiv                       0      0.00%     29.01% # Class of committed instruction
system.cpu.op_class_0::FloatAdd                     0      0.00%     29.01% # Class of committed instruction
system.cpu.op_class_0::FloatCmp                     0      0.00%     29.01% # Class of committed instruction
system.cpu.op_class_0::FloatCvt                     0      0.00%     29.01% # Class of committed instruction
system.cpu.op_class_0::FloatMult                    0      0.00%     29.01% # Class of committed instruction
system.cpu.op_class_0::FloatMultAcc                 0      0.00%     29.01% # Class of committed instruction
system.cpu.op_class_0::FloatDiv                     0      0.00%     29.01% # Class of committed instruction
system.cpu.op_class_0::FloatMisc                    0      0.00%     29.01% # Class of committed instruction
system.cpu.op_class_0::FloatSqrt                    0      0.00%     29.01% # Class of committed instruction
system.cpu.op_class_0::SimdAdd                      0      0.00%     29.01% # Class of committed instruction
system.cpu.op_class_0::SimdAddAcc                   0      0.00%     29.01% # Class of committed instruction
system.cpu.op_class_0::SimdAlu                      0      0.00%     29.01% # Class of committed instruction
system.cpu.op_class_0::SimdCmp                      0      0.00%     29.01% # Class of committed instruction
system.cpu.op_class_0::SimdCvt                      0      0.00%     29.01% # Class of committed instruction
system.cpu.op_class_0::SimdMisc                     0      0.00%     29.01% # Class of committed instruction
system.cpu.op_class_0::SimdMult                     0      0.00%     29.01% # Class of committed instruction
system.cpu.op_class_0::SimdMultAcc                  0      0.00%     29.01% # Class of committed instruction
system.cpu.op_class_0::SimdShift                    0      0.00%     29.01% # Class of committed instruction
system.cpu.op_class_0::SimdShiftAcc                 0      0.00%     29.01% # Class of committed instruction
system.cpu.op_class_0::SimdDiv                      0      0.00%     29.01% # Class of committed instruction
system.cpu.op_class_0::SimdSqrt                     0      0.00%     29.01% # Class of committed instruction
system.cpu.op_class_0::SimdFloatAdd                 0      0.00%     29.01% # Class of committed instruction
system.cpu.op_class_0::SimdFloatAlu                 0      0.00%     29.01% # Class of committed instruction
system.cpu.op_class_0::SimdFloatCmp                 0      0.00%     29.01% # Class of committed instruction
system.cpu.op_class_0::SimdFloatCvt                 0      0.00%     29.01% # Class of committed instruction
system.cpu.op_class_0::SimdFloatDiv                 0      0.00%     29.01% # Class of committed instruction
system.cpu.op_class_0::SimdFloatMisc               18      0.00%     29.01% # Class of committed instruction
system.cpu.op_class_0::SimdFloatMult                0      0.00%     29.01% # Class of committed instruction
system.cpu.op_class_0::SimdFloatMultAcc             0      0.00%     29.01% # Class of committed instruction
system.cpu.op_class_0::SimdFloatSqrt                0      0.00%     29.01% # Class of committed instruction
system.cpu.op_class_0::SimdReduceAdd                0      0.00%     29.01% # Class of committed instruction
system.cpu.op_class_0::SimdReduceAlu                0      0.00%     29.01% # Class of committed instruction
system.cpu.op_class_0::SimdReduceCmp                0      0.00%     29.01% # Class of committed instruction
system.cpu.op_class_0::SimdFloatReduceAdd            0      0.00%     29.01% # Class of committed instruction
system.cpu.op_class_0::SimdFloatReduceCmp            0      0.00%     29.01% # Class of committed instruction
system.cpu.op_class_0::SimdAes                      0      0.00%     29.01% # Class of committed instruction
system.cpu.op_class_0::SimdAesMix                   0      0.00%     29.01% # Class of committed instruction
system.cpu.op_class_0::SimdSha1Hash                 0      0.00%     29.01% # Class of committed instruction
system.cpu.op_class_0::SimdSha1Hash2                0      0.00%     29.01% # Class of committed instruction
system.cpu.op_class_0::SimdSha256Hash               0      0.00%     29.01% # Class of committed instruction
system.cpu.op_class_0::SimdSha256Hash2              0      0.00%     29.01% # Class of committed instruction
system.cpu.op_class_0::SimdShaSigma2                0      0.00%     29.01% # Class of committed instruction
system.cpu.op_class_0::SimdShaSigma3                0      0.00%     29.01% # Class of committed instruction
system.cpu.op_class_0::SimdPredAlu                  0      0.00%     29.01% # Class of committed instruction
system.cpu.op_class_0::MemRead                5969501     54.47%     83.47% # Class of committed instruction
system.cpu.op_class_0::MemWrite               1811223     16.53%    100.00% # Class of committed instruction
system.cpu.op_class_0::FloatMemRead                 0      0.00%    100.00% # Class of committed instruction
system.cpu.op_class_0::FloatMemWrite                0      0.00%    100.00% # Class of committed instruction
system.cpu.op_class_0::IprAccess                    0      0.00%    100.00% # Class of committed instruction
system.cpu.op_class_0::InstPrefetch                 0      0.00%    100.00% # Class of committed instruction
system.cpu.op_class_0::total                 10960110                       # Class of committed instruction
system.cpu.tickCycles                        15282903                       # Number of cycles that the object actually ticked
system.cpu.workload.numSyscalls                    84                       # Number of system calls
system.membus.snoop_filter.hit_multi_requests            0                       # Number of requests hitting in the snoop filter with multiple (>1) holders of the requested data.
system.membus.snoop_filter.hit_multi_snoops            0                       # Number of snoops hitting in the snoop filter with multiple (>1) holders of the requested data.
system.membus.snoop_filter.hit_single_requests        85888                       # Number of requests hitting in the snoop filter with a single holder of the requested data.
system.membus.snoop_filter.hit_single_snoops            0                       # Number of snoops hitting in the snoop filter with a single holder of the requested data.
system.membus.snoop_filter.tot_requests        204939                       # Total number of requests made to the snoop filter.
system.membus.snoop_filter.tot_snoops               0                       # Total number of snoops made to the snoop filter.
system.tol2bus.snoop_filter.hit_multi_requests           76                       # Number of requests hitting in the snoop filter with multiple (>1) holders of the requested data.
system.tol2bus.snoop_filter.hit_multi_snoops            1                       # Number of snoops hitting in the snoop filter with multiple (>1) holders of the requested data.
system.tol2bus.snoop_filter.hit_single_requests       118176                       # Number of requests hitting in the snoop filter with a single holder of the requested data.
system.tol2bus.snoop_filter.hit_single_snoops          481                       # Number of snoops hitting in the snoop filter with a single holder of the requested data.
system.tol2bus.snoop_filter.tot_requests       238952                       # Total number of requests made to the snoop filter.
system.tol2bus.snoop_filter.tot_snoops            482                       # Total number of snoops made to the snoop filter.
system.membus.pwrStateResidencyTicks::UNDEFINED  13465016000                       # Cumulative time (in ticks) in various power states
system.membus.trans_dist::ReadResp              48788                       # Transaction distribution
system.membus.trans_dist::WritebackDirty        57761                       # Transaction distribution
system.membus.trans_dist::CleanEvict            28116                       # Transaction distribution
system.membus.trans_dist::ReadExReq             70274                       # Transaction distribution
system.membus.trans_dist::ReadExResp            70274                       # Transaction distribution
system.membus.trans_dist::ReadSharedReq         48788                       # Transaction distribution
system.membus.pkt_count_system.l2.mem_side::system.mem_ctrls.port       324001                       # Packet count per connected master and slave (bytes)
system.membus.pkt_count::total                 324001                       # Packet count per connected master and slave (bytes)
system.membus.pkt_size_system.l2.mem_side::system.mem_ctrls.port     11316672                       # Cumulative packet size per connected master and slave (bytes)
system.membus.pkt_size::total                11316672                       # Cumulative packet size per connected master and slave (bytes)
system.membus.snoops                                0                       # Total snoops (count)
system.membus.snoopTraffic                          0                       # Total snoop traffic (bytes)
system.membus.snoop_fanout::samples            119062                       # Request fanout histogram
system.membus.snoop_fanout::mean                    0                       # Request fanout histogram
system.membus.snoop_fanout::stdev                   0                       # Request fanout histogram
system.membus.snoop_fanout::underflows              0      0.00%      0.00% # Request fanout histogram
system.membus.snoop_fanout::0                  119062    100.00%    100.00% # Request fanout histogram
system.membus.snoop_fanout::1                       0      0.00%    100.00% # Request fanout histogram
system.membus.snoop_fanout::overflows               0      0.00%    100.00% # Request fanout histogram
system.membus.snoop_fanout::min_value               0                       # Request fanout histogram
system.membus.snoop_fanout::max_value               0                       # Request fanout histogram
system.membus.snoop_fanout::total              119062                       # Request fanout histogram
system.membus.respLayer1.occupancy          626531250                       # Layer occupancy (ticks)
system.membus.respLayer1.utilization              4.7                       # Layer utilization (%)
system.membus.reqLayer0.occupancy           446026500                       # Layer occupancy (ticks)
system.membus.reqLayer0.utilization               3.3                       # Layer utilization (%)
system.tol2bus.pwrStateResidencyTicks::UNDEFINED  13465016000                       # Cumulative time (in ticks) in various power states
system.tol2bus.trans_dist::ReadResp             50499                       # Transaction distribution
system.tol2bus.trans_dist::WritebackDirty       127644                       # Transaction distribution
system.tol2bus.trans_dist::WritebackClean          121                       # Transaction distribution
system.tol2bus.trans_dist::CleanEvict           76763                       # Transaction distribution
system.tol2bus.trans_dist::ReadExReq            70284                       # Transaction distribution
system.tol2bus.trans_dist::ReadExResp           70284                       # Transaction distribution
system.tol2bus.trans_dist::ReadCleanReq           687                       # Transaction distribution
system.tol2bus.trans_dist::ReadSharedReq        49812                       # Transaction distribution
system.tol2bus.pkt_count_system.cpu.icache.mem_side::system.l2.cpu_side         1495                       # Packet count per connected master and slave (bytes)
system.tol2bus.pkt_count_system.cpu.dcache.mem_side::system.l2.cpu_side       358240                       # Packet count per connected master and slave (bytes)
system.tol2bus.pkt_count::total                359735                       # Packet count per connected master and slave (bytes)
system.tol2bus.pkt_size_system.cpu.icache.mem_side::system.l2.cpu_side        51712                       # Cumulative packet size per connected master and slave (bytes)
system.tol2bus.pkt_size_system.cpu.dcache.mem_side::system.l2.cpu_side     12158656                       # Cumulative packet size per connected master and slave (bytes)
system.tol2bus.pkt_size::total               12210368                       # Cumulative packet size per connected master and slave (bytes)
system.tol2bus.snoops                           86359                       # Total snoops (count)
system.tol2bus.snoopTraffic                   3696704                       # Total snoop traffic (bytes)
system.tol2bus.snoop_fanout::samples           207142                       # Request fanout histogram
system.tol2bus.snoop_fanout::mean            0.002732                       # Request fanout histogram
system.tol2bus.snoop_fanout::stdev           0.052294                       # Request fanout histogram
system.tol2bus.snoop_fanout::underflows             0      0.00%      0.00% # Request fanout histogram
system.tol2bus.snoop_fanout::0                 206577     99.73%     99.73% # Request fanout histogram
system.tol2bus.snoop_fanout::1                    564      0.27%    100.00% # Request fanout histogram
system.tol2bus.snoop_fanout::2                      1      0.00%    100.00% # Request fanout histogram
system.tol2bus.snoop_fanout::overflows              0      0.00%    100.00% # Request fanout histogram
system.tol2bus.snoop_fanout::min_value              0                       # Request fanout histogram
system.tol2bus.snoop_fanout::max_value              2                       # Request fanout histogram
system.tol2bus.snoop_fanout::total             207142                       # Request fanout histogram
system.tol2bus.reqLayer0.occupancy          189480000                       # Layer occupancy (ticks)
system.tol2bus.reqLayer0.utilization              1.4                       # Layer utilization (%)
system.tol2bus.respLayer1.occupancy         180147992                       # Layer occupancy (ticks)
system.tol2bus.respLayer1.utilization             1.3                       # Layer utilization (%)
system.tol2bus.respLayer0.occupancy           1030500                       # Layer occupancy (ticks)
system.tol2bus.respLayer0.utilization             0.0                       # Layer utilization (%)
system.voltage_domain.voltage                       1                       # Voltage in Volts
system.clk_domain.clock                          1000                       # Clock period in ticks
system.l2.pwrStateResidencyTicks::UNDEFINED  13465016000                       # Cumulative time (in ticks) in various power states
system.l2.demand_hits::.cpu.inst                   52                       # number of demand (read+write) hits
system.l2.demand_hits::.cpu.data                 1661                       # number of demand (read+write) hits
system.l2.demand_hits::total                     1713                       # number of demand (read+write) hits
system.l2.overall_hits::.cpu.inst                  52                       # number of overall hits
system.l2.overall_hits::.cpu.data                1661                       # number of overall hits
system.l2.overall_hits::total                    1713                       # number of overall hits
system.l2.demand_misses::.cpu.inst                635                       # number of demand (read+write) misses
system.l2.demand_misses::.cpu.data             118435                       # number of demand (read+write) misses
system.l2.demand_misses::total                 119070                       # number of demand (read+write) misses
system.l2.overall_misses::.cpu.inst               635                       # number of overall misses
system.l2.overall_misses::.cpu.data            118435                       # number of overall misses
system.l2.overall_misses::total                119070                       # number of overall misses
system.l2.demand_miss_latency::.cpu.inst     48750500                       # number of demand (read+write) miss cycles
system.l2.demand_miss_latency::.cpu.data   9394516500                       # number of demand (read+write) miss cycles
system.l2.demand_miss_latency::total       9443267000                       # number of demand (read+write) miss cycles
system.l2.overall_miss_latency::.cpu.inst     48750500                       # number of overall miss cycles
system.l2.overall_miss_latency::.cpu.data   9394516500                       # number of overall miss cycles
system.l2.overall_miss_latency::total      9443267000                       # number of overall miss cycles
system.l2.demand_accesses::.cpu.inst              687                       # number of demand (read+write) accesses
system.l2.demand_accesses::.cpu.data           120096                       # number of demand (read+write) accesses
system.l2.demand_accesses::total               120783                       # number of demand (read+write) accesses
system.l2.overall_accesses::.cpu.inst             687                       # number of overall (read+write) accesses
system.l2.overall_accesses::.cpu.data          120096                       # number of overall (read+write) accesses
system.l2.overall_accesses::total              120783                       # number of overall (read+write) accesses
system.l2.demand_miss_rate::.cpu.inst        0.924309                       # miss rate for demand accesses
system.l2.demand_miss_rate::.cpu.data        0.986169                       # miss rate for demand accesses
system.l2.demand_miss_rate::total            0.985818                       # miss rate for demand accesses
system.l2.overall_miss_rate::.cpu.inst       0.924309                       # miss rate for overall accesses
system.l2.overall_miss_rate::.cpu.data       0.986169                       # miss rate for overall accesses
system.l2.overall_miss_rate::total           0.985818                       # miss rate for overall accesses
system.l2.demand_avg_miss_latency::.cpu.inst 76772.440945                       # average overall miss latency
system.l2.demand_avg_miss_latency::.cpu.data 79322.130282                       # average overall miss latency
system.l2.demand_avg_miss_latency::total 79308.532796                       # average overall miss latency
system.l2.overall_avg_miss_latency::.cpu.inst 76772.440945                       # average overall miss latency
system.l2.overall_avg_miss_latency::.cpu.data 79322.130282                       # average overall miss latency
system.l2.overall_avg_miss_latency::total 79308.532796                       # average overall miss latency
system.l2.blocked_cycles::no_mshrs                  0                       # number of cycles access was blocked
system.l2.blocked_cycles::no_targets                0                       # number of cycles access was blocked
system.l2.blocked::no_mshrs                         0                       # number of cycles access was blocked
system.l2.blocked::no_targets                       0                       # number of cycles access was blocked
system.l2.avg_blocked_cycles::no_mshrs            nan                       # average number of cycles each access was blocked
system.l2.avg_blocked_cycles::no_targets          nan                       # average number of cycles each access was blocked
system.l2.writebacks::.writebacks               57761                       # number of writebacks
system.l2.writebacks::total                     57761                       # number of writebacks
system.l2.demand_mshr_hits::.cpu.data               8                       # number of demand (read+write) MSHR hits
system.l2.demand_mshr_hits::total                   8                       # number of demand (read+write) MSHR hits
system.l2.overall_mshr_hits::.cpu.data              8                       # number of overall MSHR hits
system.l2.overall_mshr_hits::total                  8                       # number of overall MSHR hits
system.l2.demand_mshr_misses::.cpu.inst           635                       # number of demand (read+write) MSHR misses
system.l2.demand_mshr_misses::.cpu.data        118427                       # number of demand (read+write) MSHR misses
system.l2.demand_mshr_misses::total            119062                       # number of demand (read+write) MSHR misses
system.l2.overall_mshr_misses::.cpu.inst          635                       # number of overall MSHR misses
system.l2.overall_mshr_misses::.cpu.data       118427                       # number of overall MSHR misses
system.l2.overall_mshr_misses::total           119062                       # number of overall MSHR misses
system.l2.demand_mshr_miss_latency::.cpu.inst     42400500                       # number of demand (read+write) MSHR miss cycles
system.l2.demand_mshr_miss_latency::.cpu.data   8209708000                       # number of demand (read+write) MSHR miss cycles
system.l2.demand_mshr_miss_latency::total   8252108500                       # number of demand (read+write) MSHR miss cycles
system.l2.overall_mshr_miss_latency::.cpu.inst     42400500                       # number of overall MSHR miss cycles
system.l2.overall_mshr_miss_latency::.cpu.data   8209708000                       # number of overall MSHR miss cycles
system.l2.overall_mshr_miss_latency::total   8252108500                       # number of overall MSHR miss cycles
system.l2.demand_mshr_miss_rate::.cpu.inst     0.924309                       # mshr miss rate for demand accesses
system.l2.demand_mshr_miss_rate::.cpu.data     0.986103                       # mshr miss rate for demand accesses
system.l2.demand_mshr_miss_rate::total       0.985751                       # mshr miss rate for demand accesses
system.l2.overall_mshr_miss_rate::.cpu.inst     0.924309                       # mshr miss rate for overall accesses
system.l2.overall_mshr_miss_rate::.cpu.data     0.986103                       # mshr miss rate for overall accesses
system.l2.overall_mshr_miss_rate::total      0.985751                       # mshr miss rate for overall accesses
system.l2.demand_avg_mshr_miss_latency::.cpu.inst 66772.440945                       # average overall mshr miss latency
system.l2.demand_avg_mshr_miss_latency::.cpu.data 69322.941559                       # average overall mshr miss latency
system.l2.demand_avg_mshr_miss_latency::total 69309.338832                       # average overall mshr miss latency
system.l2.overall_avg_mshr_miss_latency::.cpu.inst 66772.440945                       # average overall mshr miss latency
system.l2.overall_avg_mshr_miss_latency::.cpu.data 69322.941559                       # average overall mshr miss latency
system.l2.overall_avg_mshr_miss_latency::total 69309.338832                       # average overall mshr miss latency
system.l2.replacements                          86359                       # number of replacements
system.l2.WritebackDirty_hits::.writebacks        69883                       # number of WritebackDirty hits
system.l2.WritebackDirty_hits::total            69883                       # number of WritebackDirty hits
system.l2.WritebackDirty_accesses::.writebacks        69883                       # number of WritebackDirty accesses(hits+misses)
system.l2.WritebackDirty_accesses::total        69883                       # number of WritebackDirty accesses(hits+misses)
system.l2.WritebackClean_hits::.writebacks          111                       # number of WritebackClean hits
system.l2.WritebackClean_hits::total              111                       # number of WritebackClean hits
system.l2.WritebackClean_accesses::.writebacks          111                       # number of WritebackClean accesses(hits+misses)
system.l2.WritebackClean_accesses::total          111                       # number of WritebackClean accesses(hits+misses)
system.l2.ReadExReq_hits::.cpu.data                10                       # number of ReadExReq hits
system.l2.ReadExReq_hits::total                    10                       # number of ReadExReq hits
system.l2.ReadExReq_misses::.cpu.data           70274                       # number of ReadExReq misses
system.l2.ReadExReq_misses::total               70274                       # number of ReadExReq misses
system.l2.ReadExReq_miss_latency::.cpu.data   5698167500                       # number of ReadExReq miss cycles
system.l2.ReadExReq_miss_latency::total    5698167500                       # number of ReadExReq miss cycles
system.l2.ReadExReq_accesses::.cpu.data         70284                       # number of ReadExReq accesses(hits+misses)
system.l2.ReadExReq_accesses::total             70284                       # number of ReadExReq accesses(hits+misses)
system.l2.ReadExReq_miss_rate::.cpu.data     0.999858                       # miss rate for ReadExReq accesses
system.l2.ReadExReq_miss_rate::total         0.999858                       # miss rate for ReadExReq accesses
system.l2.ReadExReq_avg_miss_latency::.cpu.data 81085.002988                       # average ReadExReq miss latency
system.l2.ReadExReq_avg_miss_latency::total 81085.002988                       # average ReadExReq miss latency
system.l2.ReadExReq_mshr_misses::.cpu.data        70274                       # number of ReadExReq MSHR misses
system.l2.ReadExReq_mshr_misses::total          70274                       # number of ReadExReq MSHR misses
system.l2.ReadExReq_mshr_miss_latency::.cpu.data   4995427500                       # number of ReadExReq MSHR miss cycles
system.l2.ReadExReq_mshr_miss_latency::total   4995427500                       # number of ReadExReq MSHR miss cycles
system.l2.ReadExReq_mshr_miss_rate::.cpu.data     0.999858                       # mshr miss rate for ReadExReq accesses
system.l2.ReadExReq_mshr_miss_rate::total     0.999858                       # mshr miss rate for ReadExReq accesses
system.l2.ReadExReq_avg_mshr_miss_latency::.cpu.data 71085.002988                       # average ReadExReq mshr miss latency
system.l2.ReadExReq_avg_mshr_miss_latency::total 71085.002988                       # average ReadExReq mshr miss latency
system.l2.ReadCleanReq_hits::.cpu.inst             52                       # number of ReadCleanReq hits
system.l2.ReadCleanReq_hits::total                 52                       # number of ReadCleanReq hits
system.l2.ReadCleanReq_misses::.cpu.inst          635                       # number of ReadCleanReq misses
system.l2.ReadCleanReq_misses::total              635                       # number of ReadCleanReq misses
system.l2.ReadCleanReq_miss_latency::.cpu.inst     48750500                       # number of ReadCleanReq miss cycles
system.l2.ReadCleanReq_miss_latency::total     48750500                       # number of ReadCleanReq miss cycles
system.l2.ReadCleanReq_accesses::.cpu.inst          687                       # number of ReadCleanReq accesses(hits+misses)
system.l2.ReadCleanReq_accesses::total            687                       # number of ReadCleanReq accesses(hits+misses)
system.l2.ReadCleanReq_miss_rate::.cpu.inst     0.924309                       # miss rate for ReadCleanReq accesses
system.l2.ReadCleanReq_miss_rate::total      0.924309                       # miss rate for ReadCleanReq accesses
system.l2.ReadCleanReq_avg_miss_latency::.cpu.inst 76772.440945                       # average ReadCleanReq miss latency
system.l2.ReadCleanReq_avg_miss_latency::total 76772.440945                       # average ReadCleanReq miss latency
system.l2.ReadCleanReq_mshr_misses::.cpu.inst          635                       # number of ReadCleanReq MSHR misses
system.l2.ReadCleanReq_mshr_misses::total          635                       # number of ReadCleanReq MSHR misses
system.l2.ReadCleanReq_mshr_miss_latency::.cpu.inst     42400500                       # number of ReadCleanReq MSHR miss cycles
system.l2.ReadCleanReq_mshr_miss_latency::total     42400500                       # number of ReadCleanReq MSHR miss cycles
system.l2.ReadCleanReq_mshr_miss_rate::.cpu.inst     0.924309                       # mshr miss rate for ReadCleanReq accesses
system.l2.ReadCleanReq_mshr_miss_rate::total     0.924309                       # mshr miss rate for ReadCleanReq accesses
system.l2.ReadCleanReq_avg_mshr_miss_latency::.cpu.inst 66772.440945                       # average ReadCleanReq mshr miss latency
system.l2.ReadCleanReq_avg_mshr_miss_latency::total 66772.440945                       # average ReadCleanReq mshr miss latency
system.l2.ReadSharedReq_hits::.cpu.data          1651                       # number of ReadSharedReq hits
system.l2.ReadSharedReq_hits::total              1651                       # number of ReadSharedReq hits
system.l2.ReadSharedReq_misses::.cpu.data        48161                       # number of ReadSharedReq misses
system.l2.ReadSharedReq_misses::total           48161                       # number of ReadSharedReq misses
system.l2.ReadSharedReq_miss_latency::.cpu.data   3696349000                       # number of ReadSharedReq miss cycles
system.l2.ReadSharedReq_miss_latency::total   3696349000                       # number of ReadSharedReq miss cycles
system.l2.ReadSharedReq_accesses::.cpu.data        49812                       # number of ReadSharedReq accesses(hits+misses)
system.l2.ReadSharedReq_accesses::total         49812                       # number of ReadSharedReq accesses(hits+misses)
system.l2.ReadSharedReq_miss_rate::.cpu.data     0.966855                       # miss rate for ReadSharedReq accesses
system.l2.ReadSharedReq_miss_rate::total     0.966855                       # miss rate for ReadSharedReq accesses
system.l2.ReadSharedReq_avg_miss_latency::.cpu.data 76749.839081                       # average ReadSharedReq miss latency
system.l2.ReadSharedReq_avg_miss_latency::total 76749.839081                       # average ReadSharedReq miss latency
system.l2.ReadSharedReq_mshr_hits::.cpu.data            8                       # number of ReadSharedReq MSHR hits
system.l2.ReadSharedReq_mshr_hits::total            8                       # number of ReadSharedReq MSHR hits
system.l2.ReadSharedReq_mshr_misses::.cpu.data        48153                       # number of ReadSharedReq MSHR misses
system.l2.ReadSharedReq_mshr_misses::total        48153                       # number of ReadSharedReq MSHR misses
system.l2.ReadSharedReq_mshr_miss_latency::.cpu.data   3214280500                       # number of ReadSharedReq MSHR miss cycles
system.l2.ReadSharedReq_mshr_miss_latency::total   3214280500                       # number of ReadSharedReq MSHR miss cycles
system.l2.ReadSharedReq_mshr_miss_rate::.cpu.data     0.966695                       # mshr miss rate for ReadSharedReq accesses
system.l2.ReadSharedReq_mshr_miss_rate::total     0.966695                       # mshr miss rate for ReadSharedReq accesses
system.l2.ReadSharedReq_avg_mshr_miss_latency::.cpu.data 66751.406974                       # average ReadSharedReq mshr miss latency
system.l2.ReadSharedReq_avg_mshr_miss_latency::total 66751.406974                       # average ReadSharedReq mshr miss latency
system.l2.tags.pwrStateResidencyTicks::UNDEFINED  13465016000                       # Cumulative time (in ticks) in various power states
system.l2.tags.tagsinuse                 27538.038634                       # Cycle average of tags in use
system.l2.tags.total_refs                      238868                       # Total number of references to valid blocks.
system.l2.tags.sampled_refs                    119127                       # Sample count of references to valid blocks.
system.l2.tags.avg_refs                      2.005154                       # Average number of references to valid blocks.
system.l2.tags.warmup_cycle                     77000                       # Cycle when the warmup percentage was hit.
system.l2.tags.occ_blocks::.writebacks      34.467068                       # Average occupied blocks per requestor
system.l2.tags.occ_blocks::.cpu.inst       165.870678                       # Average occupied blocks per requestor
system.l2.tags.occ_blocks::.cpu.data     27337.700888                       # Average occupied blocks per requestor
system.l2.tags.occ_percent::.writebacks      0.001052                       # Average percentage of cache occupancy
system.l2.tags.occ_percent::.cpu.inst        0.005062                       # Average percentage of cache occupancy
system.l2.tags.occ_percent::.cpu.data        0.834280                       # Average percentage of cache occupancy
system.l2.tags.occ_percent::total            0.840394                       # Average percentage of cache occupancy
system.l2.tags.occ_task_id_blocks::1024         32768                       # Occupied blocks per task id
system.l2.tags.age_task_id_blocks_1024::0            2                       # Occupied blocks per task id
system.l2.tags.age_task_id_blocks_1024::1           19                       # Occupied blocks per task id
system.l2.tags.age_task_id_blocks_1024::2          405                       # Occupied blocks per task id
system.l2.tags.age_task_id_blocks_1024::3        32342                       # Occupied blocks per task id
system.l2.tags.occ_task_id_percent::1024            1                       # Percentage of cache occupancy per task id
system.l2.tags.tag_accesses                   2030135                       # Number of tag accesses
system.l2.tags.data_accesses                  2030135                       # Number of data accesses
system.cpu_voltage_domain.voltage                   1                       # Voltage in Volts
system.mem_ctrls.pwrStateResidencyTicks::UNDEFINED  13465016000                       # Cumulative time (in ticks) in various power states
system.mem_ctrls.bytes_read::.cpu.inst          40640                       # Number of bytes read from this memory
system.mem_ctrls.bytes_read::.cpu.data        7579328                       # Number of bytes read from this memory
system.mem_ctrls.bytes_read::total            7619968                       # Number of bytes read from this memory
system.mem_ctrls.bytes_inst_read::.cpu.inst        40640                       # Number of instructions bytes read from this memory
system.mem_ctrls.bytes_inst_read::total         40640                       # Number of instructions bytes read from this memory
system.mem_ctrls.bytes_written::.writebacks      3696704                       # Number of bytes written to this memory
system.mem_ctrls.bytes_written::total         3696704                       # Number of bytes written to this memory
system.mem_ctrls.num_reads::.cpu.inst             635                       # Number of read requests responded to by this memory
system.mem_ctrls.num_reads::.cpu.data          118427                       # Number of read requests responded to by this memory
system.mem_ctrls.num_reads::total              119062                       # Number of read requests responded to by this memory
system.mem_ctrls.num_writes::.writebacks        57761                       # Number of write requests responded to by this memory
system.mem_ctrls.num_writes::total              57761                       # Number of write requests responded to by this memory
system.mem_ctrls.bw_read::.cpu.inst           3018192                       # Total read bandwidth from this memory (bytes/s)
system.mem_ctrls.bw_read::.cpu.data         562890382                       # Total read bandwidth from this memory (bytes/s)
system.mem_ctrls.bw_read::total             565908574                       # Total read bandwidth from this memory (bytes/s)
system.mem_ctrls.bw_inst_read::.cpu.inst      3018192                       # Instruction read bandwidth from this memory (bytes/s)
system.mem_ctrls.bw_inst_read::total          3018192                       # Instruction read bandwidth from this memory (bytes/s)
system.mem_ctrls.bw_write::.writebacks      274541374                       # Write bandwidth from this memory (bytes/s)
system.mem_ctrls.bw_write::total            274541374                       # Write bandwidth from this memory (bytes/s)
system.mem_ctrls.bw_total::.writebacks      274541374                       # Total bandwidth to/from this memory (bytes/s)
system.mem_ctrls.bw_total::.cpu.inst          3018192                       # Total bandwidth to/from this memory (bytes/s)
system.mem_ctrls.bw_total::.cpu.data        562890382                       # Total bandwidth to/from this memory (bytes/s)
system.mem_ctrls.bw_total::total            840449948                       # Total bandwidth to/from this memory (bytes/s)
system.mem_ctrls.avgPriority_.writebacks::samples     57761.00                       # Average QoS priority value for accepted requests
system.mem_ctrls.avgPriority_.cpu.inst::samples       635.00                       # Average QoS priority value for accepted requests
system.mem_ctrls.avgPriority_.cpu.data::samples    118427.00                       # Average QoS priority value for accepted requests
system.mem_ctrls.priorityMinLatency      0.000000018750                       # per QoS priority minimum request to response latency (s)
system.mem_ctrls.priorityMaxLatency      0.001472478500                       # per QoS priority maximum request to response latency (s)
system.mem_ctrls.numReadWriteTurnArounds         3602                       # Number of turnarounds from READ to WRITE
system.mem_ctrls.numWriteReadTurnArounds         3602                       # Number of turnarounds from WRITE to READ
system.mem_ctrls.numStayReadState              291111                       # Number of times bus staying in READ state
system.mem_ctrls.numStayWriteState              54189                       # Number of times bus staying in WRITE state
system.mem_ctrls.readReqs                      119062                       # Number of read requests accepted
system.mem_ctrls.writeReqs                      57761                       # Number of write requests accepted
system.mem_ctrls.readBursts                    119062                       # Number of DRAM read bursts, including those serviced by the write queue
system.mem_ctrls.writeBursts                    57761                       # Number of DRAM write bursts, including those merged in the write queue
system.mem_ctrls.servicedByWrQ                      0                       # Number of DRAM read bursts serviced by the write queue
system.mem_ctrls.mergedWrBursts                     0                       # Number of DRAM write bursts merged with an existing one
system.mem_ctrls.neitherReadNorWriteReqs            0                       # Number of requests that are neither read nor write
system.mem_ctrls.perBankRdBursts::0              7473                       # Per bank write bursts
system.mem_ctrls.perBankRdBursts::1              7456                       # Per bank write bursts
system.mem_ctrls.perBankRdBursts::2              7497                       # Per bank write bursts
system.mem_ctrls.perBankRdBursts::3              7538                       # Per bank write bursts
system.mem_ctrls.perBankRdBursts::4              7497                       # Per bank write bursts
system.mem_ctrls.perBankRdBursts::5              7457                       # Per bank write bursts
system.mem_ctrls.perBankRdBursts::6              7408                       # Per bank write bursts
system.mem_ctrls.perBankRdBursts::7              7367                       # Per bank write bursts
system.mem_ctrls.perBankRdBursts::8              7529                       # Per bank write bursts
system.mem_ctrls.perBankRdBursts::9              7592                       # Per bank write bursts
system.mem_ctrls.perBankRdBursts::10             7342                       # Per bank write bursts
system.mem_ctrls.perBankRdBursts::11             7344                       # Per bank write bursts
system.mem_ctrls.perBankRdBursts::12             7349                       # Per bank write bursts
system.mem_ctrls.perBankRdBursts::13             7372                       # Per bank write bursts
system.mem_ctrls.perBankRdBursts::14             7490                       # Per bank write bursts
system.mem_ctrls.perBankRdBursts::15             7351                       # Per bank write bursts
system.mem_ctrls.perBankWrBursts::0              3574                       # Per bank write bursts
system.mem_ctrls.perBankWrBursts::1              3622                       # Per bank write bursts
system.mem_ctrls.perBankWrBursts::2              3665                       # Per bank write bursts
system.mem_ctrls.perBankWrBursts::3              3674                       # Per bank write bursts
system.mem_ctrls.perBankWrBursts::4              3689                       # Per bank write bursts
system.mem_ctrls.perBankWrBursts::5              3677                       # Per bank write bursts
system.mem_ctrls.perBankWrBursts::6              3633                       # Per bank write bursts
system.mem_ctrls.perBankWrBursts::7              3623                       # Per bank write bursts
system.mem_ctrls.perBankWrBursts::8              3611                       # Per bank write bursts
system.mem_ctrls.perBankWrBursts::9              3614                       # Per bank write bursts
system.mem_ctrls.perBankWrBursts::10             3556                       # Per bank write bursts
system.mem_ctrls.perBankWrBursts::11             3572                       # Per bank write bursts
system.mem_ctrls.perBankWrBursts::12             3576                       # Per bank write bursts
system.mem_ctrls.perBankWrBursts::13             3545                       # Per bank write bursts
system.mem_ctrls.perBankWrBursts::14             3593                       # Per bank write bursts
system.mem_ctrls.perBankWrBursts::15             3517                       # Per bank write bursts
system.mem_ctrls.avgRdQLen                       1.33                       # Average read queue length when enqueuing
system.mem_ctrls.avgWrQLen                      24.93                       # Average write queue length when enqueuing
system.mem_ctrls.totQLat                   1154552500                       # Total ticks spent queuing
system.mem_ctrls.totBusLat                  595310000                       # Total ticks spent in databus transfers
system.mem_ctrls.totMemAccLat              3386965000                       # Total ticks spent from burst creation until serviced by the DRAM
system.mem_ctrls.avgQLat                      9697.07                       # Average queueing delay per DRAM burst
system.mem_ctrls.avgBusLat                    5000.00                       # Average bus latency per DRAM burst
system.mem_ctrls.avgMemAccLat                28447.07                       # Average memory access latency per DRAM burst
system.mem_ctrls.numRdRetry                         0                       # Number of times read queue was full causing retry
system.mem_ctrls.numWrRetry                         0                       # Number of times write queue was full causing retry
system.mem_ctrls.readRowHits                   106653                       # Number of row buffer hits during reads
system.mem_ctrls.writeRowHits                   50135                       # Number of row buffer hits during writes
system.mem_ctrls.readRowHitRate                 89.58                       # Row buffer hit rate for reads
system.mem_ctrls.writeRowHitRate                86.80                       # Row buffer hit rate for writes
system.mem_ctrls.readPktSize::0                     0                       # Read request sizes (log2)
system.mem_ctrls.readPktSize::1                     0                       # Read request sizes (log2)
system.mem_ctrls.readPktSize::2                     0                       # Read request sizes (log2)
system.mem_ctrls.readPktSize::3                     0                       # Read request sizes (log2)
system.mem_ctrls.readPktSize::4                     0                       # Read request sizes (log2)
system.mem_ctrls.readPktSize::5                     0                       # Read request sizes (log2)
system.mem_ctrls.readPktSize::6                119062                       # Read request sizes (log2)
system.mem_ctrls.writePktSize::0                    0                       # Write request sizes (log2)
system.mem_ctrls.writePktSize::1                    0                       # Write request sizes (log2)
system.mem_ctrls.writePktSize::2                    0                       # Write request sizes (log2)
system.mem_ctrls.writePktSize::3                    0                       # Write request sizes (log2)
system.mem_ctrls.writePktSize::4                    0                       # Write request sizes (log2)
system.mem_ctrls.writePktSize::5                    0                       # Write request sizes (log2)
system.mem_ctrls.writePktSize::6                57761                       # Write request sizes (log2)
system.mem_ctrls.rdQLenPdf::0                   67459                       # What read queue length does an incoming req see
system.mem_ctrls.rdQLenPdf::1                   51592                       # What read queue length does an incoming req see
system.mem_ctrls.rdQLenPdf::2                      11                       # What read queue length does an incoming req see
system.mem_ctrls.rdQLenPdf::3                       0                       # What read queue length does an incoming req see
system.mem_ctrls.rdQLenPdf::4                       0                       # What read queue length does an incoming req see
system.mem_ctrls.rdQLenPdf::5                       0                       # What read queue length does an incoming req see
system.mem_ctrls.rdQLenPdf::6                       0                       # What read queue length does an incoming req see
system.mem_ctrls.rdQLenPdf::7                       0                       # What read queue length does an incoming req see
system.mem_ctrls.rdQLenPdf::8                       0                       # What read queue length does an incoming req see
system.mem_ctrls.rdQLenPdf::9                       0                       # What read queue length does an incoming req see
system.mem_ctrls.rdQLenPdf::10                      0                       # What read queue length does an incoming req see
system.mem_ctrls.rdQLenPdf::11                      0                       # What read queue length does an incoming req see
system.mem_ctrls.rdQLenPdf::12                      0                       # What read queue length does an incoming req see
system.mem_ctrls.rdQLenPdf::13                      0                       # What read queue length does an incoming req see
system.mem_ctrls.rdQLenPdf::14                      0                       # What read queue length does an incoming req see
system.mem_ctrls.rdQLenPdf::15                      0                       # What read queue length does an incoming req see
system.mem_ctrls.rdQLenPdf::16                      0                       # What read queue length does an incoming req see
system.mem_ctrls.rdQLenPdf::17                      0                       # What read queue length does an incoming req see
system.mem_ctrls.rdQLenPdf::18                      0                       # What read queue length does an incoming req see
system.mem_ctrls.rdQLenPdf::19                      0                       # What read queue length does an incoming req see
system.mem_ctrls.rdQLenPdf::20                      0                       # What read queue length does an incoming req see
system.mem_ctrls.rdQLenPdf::21                      0                       # What read queue length does an incoming req see
system.mem_ctrls.rdQLenPdf::22                      0                       # What read queue length does an incoming req see
system.mem_ctrls.rdQLenPdf::23                      0                       # What read queue length does an incoming req see
system.mem_ctrls.rdQLenPdf::24                      0                       # What read queue length does an incoming req see
system.mem_ctrls.rdQLenPdf::25                      0                       # What read queue length does an incoming req see
system.mem_ctrls.rdQLenPdf::26                      0                       # What read queue length does an incoming req see
system.mem_ctrls.rdQLenPdf::27                      0                       # What read queue length does an incoming req see
system.mem_ctrls.rdQLenPdf::28                      0                       # What read queue length does an incoming req see
system.mem_ctrls.rdQLenPdf::29                      0                       # What read queue length does an incoming req see
system.mem_ctrls.rdQLenPdf::30                      0                       # What read queue length does an incoming req see
system.mem_ctrls.rdQLenPdf::31                      0                       # What read queue length does an incoming req see
system.mem_ctrls.wrQLenPdf::0                       1                       # What write queue length does an incoming req see
system.mem_ctrls.wrQLenPdf::1                       1                       # What write queue length does an incoming req see
system.mem_ctrls.wrQLenPdf::2                       1                       # What write queue length does an incoming req see
system.mem_ctrls.wrQLenPdf::3                       1                       # What write queue length does an incoming req see
system.mem_ctrls.wrQLenPdf::4                       1                       # What write queue length does an incoming req see
system.mem_ctrls.wrQLenPdf::5                       1                       # What write queue length does an incoming req see
system.mem_ctrls.wrQLenPdf::6                       1                       # What write queue length does an incoming req see
system.mem_ctrls.wrQLenPdf::7                       1                       # What write queue length does an incoming req see
system.mem_ctrls.wrQLenPdf::8                       1                       # What write queue length does an incoming req see
system.mem_ctrls.wrQLenPdf::9                       1                       # What write queue length does an incoming req see
system.mem_ctrls.wrQLenPdf::10                      1                       # What write queue length does an incoming req see
system.mem_ctrls.wrQLenPdf::11                      1                       # What write queue length does an incoming req see
system.mem_ctrls.wrQLenPdf::12                      1                       # What write queue length does an incoming req see
system.mem_ctrls.wrQLenPdf::13                      1                       # What write queue length does an incoming req see
system.mem_ctrls.wrQLenPdf::14                      1                       # What write queue length does an incoming req see
system.mem_ctrls.wrQLenPdf::15                     44                       # What write queue length does an incoming req see
system.mem_ctrls.wrQLenPdf::16                     45                       # What write queue length does an incoming req see
system.mem_ctrls.wrQLenPdf::17                   2307                       # What write queue length does an incoming req see
system.mem_ctrls.wrQLenPdf::18                   3619                       # What write queue length does an incoming req see
system.mem_ctrls.wrQLenPdf::19                   3619                       # What write queue length does an incoming req see
system.mem_ctrls.wrQLenPdf::20                   3689                       # What write queue length does an incoming req see
system.mem_ctrls.wrQLenPdf::21                   3603                       # What write queue length does an incoming req see
system.mem_ctrls.wrQLenPdf::22                   3761                       # What write queue length does an incoming req see
system.mem_ctrls.wrQLenPdf::23                   3655                       # What write queue length does an incoming req see
system.mem_ctrls.wrQLenPdf::24                   3825                       # What write queue length does an incoming req see
system.mem_ctrls.wrQLenPdf::25                   3716                       # What write queue length does an incoming req see
system.mem_ctrls.wrQLenPdf::26                   3643                       # What write queue length does an incoming req see
system.mem_ctrls.wrQLenPdf::27                   3613                       # What write queue length does an incoming req see
system.mem_ctrls.wrQLenPdf::28                   4169                       # What write queue length does an incoming req see
system.mem_ctrls.wrQLenPdf::29                   3627                       # What write queue length does an incoming req see
system.mem_ctrls.wrQLenPdf::30                   3604                       # What write queue length does an incoming req see
system.mem_ctrls.wrQLenPdf::31                   3603                       # What write queue length does an incoming req see
system.mem_ctrls.wrQLenPdf::32                   3602                       # What write queue length does an incoming req see
system.mem_ctrls.wrQLenPdf::33                      2                       # What write queue length does an incoming req see
system.mem_ctrls.wrQLenPdf::34                      0                       # What write queue length does an incoming req see
system.mem_ctrls.wrQLenPdf::35                      0                       # What write queue length does an incoming req see
system.mem_ctrls.wrQLenPdf::36                      0                       # What write queue length does an incoming req see
system.mem_ctrls.wrQLenPdf::37                      0                       # What write queue length does an incoming req see
system.mem_ctrls.wrQLenPdf::38                      0                       # What write queue length does an incoming req see
system.mem_ctrls.wrQLenPdf::39                      0                       # What write queue length does an incoming req see
system.mem_ctrls.wrQLenPdf::40                      0                       # What write queue length does an incoming req see
system.mem_ctrls.wrQLenPdf::41                      0                       # What write queue length does an incoming req see
system.mem_ctrls.wrQLenPdf::42                      0                       # What write queue length does an incoming req see
system.mem_ctrls.wrQLenPdf::43                      0                       # What write queue length does an incoming req see
system.mem_ctrls.wrQLenPdf::44                      0                       # What write queue length does an incoming req see
system.mem_ctrls.wrQLenPdf::45                      0                       # What write queue length does an incoming req see
system.mem_ctrls.wrQLenPdf::46                      0                       # What write queue length does an incoming req see
system.mem_ctrls.wrQLenPdf::47                      0                       # What write queue length does an incoming req see
system.mem_ctrls.wrQLenPdf::48                      0                       # What write queue length does an incoming req see
system.mem_ctrls.wrQLenPdf::49                      0                       # What write queue length does an incoming req see
system.mem_ctrls.wrQLenPdf::50                      0                       # What write queue length does an incoming req see
system.mem_ctrls.wrQLenPdf::51                      0                       # What write queue length does an incoming req see
system.mem_ctrls.wrQLenPdf::52                      0                       # What write queue length does an incoming req see
system.mem_ctrls.wrQLenPdf::53                      0                       # What write queue length does an incoming req see
system.mem_ctrls.wrQLenPdf::54                      0                       # What write queue length does an incoming req see
system.mem_ctrls.wrQLenPdf::55                      0                       # What write queue length does an incoming req see
system.mem_ctrls.wrQLenPdf::56                      0                       # What write queue length does an incoming req see
system.mem_ctrls.wrQLenPdf::57                      0                       # What write queue length does an incoming req see
system.mem_ctrls.wrQLenPdf::58                      0                       # What write queue length does an incoming req see
system.mem_ctrls.wrQLenPdf::59                      0                       # What write queue length does an incoming req see
system.mem_ctrls.wrQLenPdf::60                      0                       # What write queue length does an incoming req see
system.mem_ctrls.wrQLenPdf::61                      0                       # What write queue length does an incoming req see
system.mem_ctrls.wrQLenPdf::62                      0                       # What write queue length does an incoming req see
system.mem_ctrls.wrQLenPdf::63                      0                       # What write queue length does an incoming req see
system.mem_ctrls.bytesPerActivate::samples        20014                       # Bytes accessed per row activation
system.mem_ctrls.bytesPerActivate::mean    565.370641                       # Bytes accessed per row activation
system.mem_ctrls.bytesPerActivate::gmean   447.093435                       # Bytes accessed per row activation
system.mem_ctrls.bytesPerActivate::stdev   316.421646                       # Bytes accessed per row activation
system.mem_ctrls.bytesPerActivate::0-127         1494      7.46%      7.46% # Bytes accessed per row activation
system.mem_ctrls.bytesPerActivate::128-255         2222     11.10%     18.57% # Bytes accessed per row activation
system.mem_ctrls.bytesPerActivate::256-383         1012      5.06%     23.62% # Bytes accessed per row activation
system.mem_ctrls.bytesPerActivate::384-511          959      4.79%     28.42% # Bytes accessed per row activation
system.mem_ctrls.bytesPerActivate::512-639         8388     41.91%     70.33% # Bytes accessed per row activation
system.mem_ctrls.bytesPerActivate::640-767          322      1.61%     71.93% # Bytes accessed per row activation
system.mem_ctrls.bytesPerActivate::768-895          249      1.24%     73.18% # Bytes accessed per row activation
system.mem_ctrls.bytesPerActivate::896-1023          332      1.66%     74.84% # Bytes accessed per row activation
system.mem_ctrls.bytesPerActivate::1024-1151         5036     25.16%    100.00% # Bytes accessed per row activation
system.mem_ctrls.bytesPerActivate::total        20014                       # Bytes accessed per row activation
system.mem_ctrls.rdPerTurnAround::samples         3602                       # Reads before turning the bus around for writes
system.mem_ctrls.rdPerTurnAround::mean      33.049417                       # Reads before turning the bus around for writes
system.mem_ctrls.rdPerTurnAround::gmean     24.428608                       # Reads before turning the bus around for writes
system.mem_ctrls.rdPerTurnAround::stdev     62.214161                       # Reads before turning the bus around for writes
system.mem_ctrls.rdPerTurnAround::0-127          3469     96.31%     96.31% # Reads before turning the bus around for writes
system.mem_ctrls.rdPerTurnAround::128-255           12      0.33%     96.64% # Reads before turning the bus around for writes
system.mem_ctrls.rdPerTurnAround::256-383          120      3.33%     99.97% # Reads before turning the bus around for writes
system.mem_ctrls.rdPerTurnAround::2560-2687            1      0.03%    100.00% # Reads before turning the bus around for writes
system.mem_ctrls.rdPerTurnAround::total          3602                       # Reads before turning the bus around for writes
system.mem_ctrls.wrPerTurnAround::samples         3602                       # Writes before turning the bus around for reads
system.mem_ctrls.wrPerTurnAround::mean      16.030261                       # Writes before turning the bus around for reads
system.mem_ctrls.wrPerTurnAround::gmean     16.028026                       # Writes before turning the bus around for reads
system.mem_ctrls.wrPerTurnAround::stdev      0.283638                       # Writes before turning the bus around for reads
system.mem_ctrls.wrPerTurnAround::16             3556     98.72%     98.72% # Writes before turning the bus around for reads
[...]
system.cpu.icache.ReadReq_avg_miss_latency::total 74347.889374                       # average ReadReq miss latency
system.cpu.icache.ReadReq_mshr_misses::.cpu.inst          687                       # number of ReadReq MSHR misses
system.cpu.icache.ReadReq_mshr_misses::total          687                       # number of ReadReq MSHR misses
system.cpu.icache.ReadReq_mshr_miss_latency::.cpu.inst     50390000                       # number of ReadReq MSHR miss cycles
system.cpu.icache.ReadReq_mshr_miss_latency::total     50390000                       # number of ReadReq MSHR miss cycles
system.cpu.icache.ReadReq_mshr_miss_rate::.cpu.inst     0.000402                       # mshr miss rate for ReadReq accesses
system.cpu.icache.ReadReq_mshr_miss_rate::total     0.000402                       # mshr miss rate for ReadReq accesses
system.cpu.icache.ReadReq_avg_mshr_miss_latency::.cpu.inst 73347.889374                       # average ReadReq mshr miss latency
system.cpu.icache.ReadReq_avg_mshr_miss_latency::total 73347.889374                       # average ReadReq mshr miss latency
system.cpu.icache.tags.pwrStateResidencyTicks::UNDEFINED  13465016000                       # Cumulative time (in ticks) in various power states
system.cpu.icache.tags.tagsinuse           516.398213                       # Cycle average of tags in use
system.cpu.icache.tags.total_refs             1707250                       # Total number of references to valid blocks.
system.cpu.icache.tags.sampled_refs               687                       # Sample count of references to valid blocks.
system.cpu.icache.tags.avg_refs           2485.080058                       # Average number of references to valid blocks.
system.cpu.icache.tags.warmup_cycle             87500                       # Cycle when the warmup percentage was hit.
system.cpu.icache.tags.occ_blocks::.cpu.inst   516.398213                       # Average occupied blocks per requestor
system.cpu.icache.tags.occ_percent::.cpu.inst     0.504295                       # Average percentage of cache occupancy
system.cpu.icache.tags.occ_percent::total     0.504295                       # Average percentage of cache occupancy
system.cpu.icache.tags.occ_task_id_blocks::1024          566                       # Occupied blocks per task id
system.cpu.icache.tags.age_task_id_blocks_1024::3          151                       # Occupied blocks per task id
system.cpu.icache.tags.age_task_id_blocks_1024::4          415                       # Occupied blocks per task id
system.cpu.icache.tags.occ_task_id_percent::1024     0.552734                       # Percentage of cache occupancy per task id
system.cpu.icache.tags.tag_accesses           3415187                       # Number of tag accesses
system.cpu.icache.tags.data_accesses          3415187                       # Number of data accesses
system.cpu.dtb.walker.pwrStateResidencyTicks::UNDEFINED  13465016000                       # Cumulative time (in ticks) in various power states
system.cpu.dtb.stage2_mmu.stage2_tlb.walker.pwrStateResidencyTicks::UNDEFINED  13465016000                       # Cumulative time (in ticks) in various power states
system.cpu.dcache.pwrStateResidencyTicks::UNDEFINED  13465016000                       # Cumulative time (in ticks) in various power states
system.cpu.dcache.demand_hits::.cpu.data      7539895                       # number of demand (read+write) hits
system.cpu.dcache.demand_hits::total          7539895                       # number of demand (read+write) hits
system.cpu.dcache.overall_hits::.cpu.data      7539987                       # number of overall hits
system.cpu.dcache.overall_hits::total         7539987                       # number of overall hits
system.cpu.dcache.demand_misses::.cpu.data       120829                       # number of demand (read+write) misses
system.cpu.dcache.demand_misses::total         120829                       # number of demand (read+write) misses
system.cpu.dcache.overall_misses::.cpu.data       199427                       # number of overall misses
system.cpu.dcache.overall_misses::total        199427                       # number of overall misses
system.cpu.dcache.demand_miss_latency::.cpu.data   9776440000                       # number of demand (read+write) miss cycles
system.cpu.dcache.demand_miss_latency::total   9776440000                       # number of demand (read+write) miss cycles
system.cpu.dcache.overall_miss_latency::.cpu.data   9776440000                       # number of overall miss cycles
system.cpu.dcache.overall_miss_latency::total   9776440000                       # number of overall miss cycles
system.cpu.dcache.demand_accesses::.cpu.data      7660724                       # number of demand (read+write) accesses
system.cpu.dcache.demand_accesses::total      7660724                       # number of demand (read+write) accesses
system.cpu.dcache.overall_accesses::.cpu.data      7739414                       # number of overall (read+write) accesses
system.cpu.dcache.overall_accesses::total      7739414                       # number of overall (read+write) accesses
system.cpu.dcache.demand_miss_rate::.cpu.data     0.015773                       # miss rate for demand accesses
system.cpu.dcache.demand_miss_rate::total     0.015773                       # miss rate for demand accesses
system.cpu.dcache.overall_miss_rate::.cpu.data     0.025768                       # miss rate for overall accesses
system.cpu.dcache.overall_miss_rate::total     0.025768                       # miss rate for overall accesses
system.cpu.dcache.demand_avg_miss_latency::.cpu.data 80911.370615                       # average overall miss latency
system.cpu.dcache.demand_avg_miss_latency::total 80911.370615                       # average overall miss latency
system.cpu.dcache.overall_avg_miss_latency::.cpu.data 49022.649892                       # average overall miss latency
system.cpu.dcache.overall_avg_miss_latency::total 49022.649892                       # average overall miss latency
system.cpu.dcache.blocked_cycles::no_mshrs            0                       # number of cycles access was blocked
system.cpu.dcache.blocked_cycles::no_targets            0                       # number of cycles access was blocked
system.cpu.dcache.blocked::no_mshrs                 0                       # number of cycles access was blocked
system.cpu.dcache.blocked::no_targets               0                       # number of cycles access was blocked
system.cpu.dcache.avg_blocked_cycles::no_mshrs          nan                       # average number of cycles each access was blocked
system.cpu.dcache.avg_blocked_cycles::no_targets          nan                       # average number of cycles each access was blocked
system.cpu.dcache.writebacks::.writebacks        69883                       # number of writebacks
system.cpu.dcache.writebacks::total             69883                       # number of writebacks
system.cpu.dcache.demand_mshr_hits::.cpu.data        40041                       # number of demand (read+write) MSHR hits
system.cpu.dcache.demand_mshr_hits::total        40041                       # number of demand (read+write) MSHR hits
system.cpu.dcache.overall_mshr_hits::.cpu.data        40041                       # number of overall MSHR hits
system.cpu.dcache.overall_mshr_hits::total        40041                       # number of overall MSHR hits
system.cpu.dcache.demand_mshr_misses::.cpu.data        80788                       # number of demand (read+write) MSHR misses
system.cpu.dcache.demand_mshr_misses::total        80788                       # number of demand (read+write) MSHR misses
system.cpu.dcache.overall_mshr_misses::.cpu.data       120096                       # number of overall MSHR misses
system.cpu.dcache.overall_mshr_misses::total       120096                       # number of overall MSHR misses
system.cpu.dcache.demand_mshr_miss_latency::.cpu.data   6529079500                       # number of demand (read+write) MSHR miss cycles
system.cpu.dcache.demand_mshr_miss_latency::total   6529079500                       # number of demand (read+write) MSHR miss cycles
system.cpu.dcache.overall_mshr_miss_latency::.cpu.data   9592128500                       # number of overall MSHR miss cycles
system.cpu.dcache.overall_mshr_miss_latency::total   9592128500                       # number of overall MSHR miss cycles
system.cpu.dcache.demand_mshr_miss_rate::.cpu.data     0.010546                       # mshr miss rate for demand accesses
system.cpu.dcache.demand_mshr_miss_rate::total     0.010546                       # mshr miss rate for demand accesses
system.cpu.dcache.overall_mshr_miss_rate::.cpu.data     0.015517                       # mshr miss rate for overall accesses
system.cpu.dcache.overall_mshr_miss_rate::total     0.015517                       # mshr miss rate for overall accesses
system.cpu.dcache.demand_avg_mshr_miss_latency::.cpu.data 80817.441947                       # average overall mshr miss latency
system.cpu.dcache.demand_avg_mshr_miss_latency::total 80817.441947                       # average overall mshr miss latency
system.cpu.dcache.overall_avg_mshr_miss_latency::.cpu.data 79870.507760                       # average overall mshr miss latency
system.cpu.dcache.overall_avg_mshr_miss_latency::total 79870.507760                       # average overall mshr miss latency
system.cpu.dcache.replacements                 118048                       # number of replacements
system.cpu.dcache.ReadReq_hits::.cpu.data      5837674                       # number of ReadReq hits
system.cpu.dcache.ReadReq_hits::total         5837674                       # number of ReadReq hits
system.cpu.dcache.ReadReq_misses::.cpu.data        12056                       # number of ReadReq misses
system.cpu.dcache.ReadReq_misses::total         12056                       # number of ReadReq misses
system.cpu.dcache.ReadReq_miss_latency::.cpu.data    816845000                       # number of ReadReq miss cycles
system.cpu.dcache.ReadReq_miss_latency::total    816845000                       # number of ReadReq miss cycles
system.cpu.dcache.ReadReq_accesses::.cpu.data      5849730                       # number of ReadReq accesses(hits+misses)
system.cpu.dcache.ReadReq_accesses::total      5849730                       # number of ReadReq accesses(hits+misses)
system.cpu.dcache.ReadReq_miss_rate::.cpu.data     0.002061                       # miss rate for ReadReq accesses
system.cpu.dcache.ReadReq_miss_rate::total     0.002061                       # miss rate for ReadReq accesses
system.cpu.dcache.ReadReq_avg_miss_latency::.cpu.data 67754.230259                       # average ReadReq miss latency
system.cpu.dcache.ReadReq_avg_miss_latency::total 67754.230259                       # average ReadReq miss latency
system.cpu.dcache.ReadReq_mshr_hits::.cpu.data         1552                       # number of ReadReq MSHR hits
system.cpu.dcache.ReadReq_mshr_hits::total         1552                       # number of ReadReq MSHR hits
system.cpu.dcache.ReadReq_mshr_misses::.cpu.data        10504                       # number of ReadReq MSHR misses
system.cpu.dcache.ReadReq_mshr_misses::total        10504                       # number of ReadReq MSHR misses
system.cpu.dcache.ReadReq_mshr_miss_latency::.cpu.data    725378500                       # number of ReadReq MSHR miss cycles
system.cpu.dcache.ReadReq_mshr_miss_latency::total    725378500                       # number of ReadReq MSHR miss cycles
system.cpu.dcache.ReadReq_mshr_miss_rate::.cpu.data     0.001796                       # mshr miss rate for ReadReq accesses
system.cpu.dcache.ReadReq_mshr_miss_rate::total     0.001796                       # mshr miss rate for ReadReq accesses
system.cpu.dcache.ReadReq_avg_mshr_miss_latency::.cpu.data 69057.359101                       # average ReadReq mshr miss latency
system.cpu.dcache.ReadReq_avg_mshr_miss_latency::total 69057.359101                       # average ReadReq mshr miss latency
system.cpu.dcache.WriteReq_hits::.cpu.data      1702221                       # number of WriteReq hits
system.cpu.dcache.WriteReq_hits::total        1702221                       # number of WriteReq hits
system.cpu.dcache.WriteReq_misses::.cpu.data       108773                       # number of WriteReq misses
system.cpu.dcache.WriteReq_misses::total       108773                       # number of WriteReq misses
system.cpu.dcache.WriteReq_miss_latency::.cpu.data   8959595000                       # number of WriteReq miss cycles
system.cpu.dcache.WriteReq_miss_latency::total   8959595000                       # number of WriteReq miss cycles
system.cpu.dcache.WriteReq_accesses::.cpu.data      1810994                       # number of WriteReq accesses(hits+misses)
system.cpu.dcache.WriteReq_accesses::total      1810994                       # number of WriteReq accesses(hits+misses)
system.cpu.dcache.WriteReq_miss_rate::.cpu.data     0.060063                       # miss rate for WriteReq accesses
system.cpu.dcache.WriteReq_miss_rate::total     0.060063                       # miss rate for WriteReq accesses
system.cpu.dcache.WriteReq_avg_miss_latency::.cpu.data 82369.659750                       # average WriteReq miss latency
system.cpu.dcache.WriteReq_avg_miss_latency::total 82369.659750                       # average WriteReq miss latency
system.cpu.dcache.WriteReq_mshr_hits::.cpu.data        38489                       # number of WriteReq MSHR hits
system.cpu.dcache.WriteReq_mshr_hits::total        38489                       # number of WriteReq MSHR hits
system.cpu.dcache.WriteReq_mshr_misses::.cpu.data        70284                       # number of WriteReq MSHR misses
system.cpu.dcache.WriteReq_mshr_misses::total        70284                       # number of WriteReq MSHR misses
system.cpu.dcache.WriteReq_mshr_miss_latency::.cpu.data   5803701000                       # number of WriteReq MSHR miss cycles
system.cpu.dcache.WriteReq_mshr_miss_latency::total   5803701000                       # number of WriteReq MSHR miss cycles
system.cpu.dcache.WriteReq_mshr_miss_rate::.cpu.data     0.038810                       # mshr miss rate for WriteReq accesses
system.cpu.dcache.WriteReq_mshr_miss_rate::total     0.038810                       # mshr miss rate for WriteReq accesses
system.cpu.dcache.WriteReq_avg_mshr_miss_latency::.cpu.data 82574.995732                       # average WriteReq mshr miss latency
system.cpu.dcache.WriteReq_avg_mshr_miss_latency::total 82574.995732                       # average WriteReq mshr miss latency
system.cpu.dcache.SoftPFReq_hits::.cpu.data           92                       # number of SoftPFReq hits
system.cpu.dcache.SoftPFReq_hits::total            92                       # number of SoftPFReq hits
system.cpu.dcache.SoftPFReq_misses::.cpu.data        78598                       # number of SoftPFReq misses
system.cpu.dcache.SoftPFReq_misses::total        78598                       # number of SoftPFReq misses
system.cpu.dcache.SoftPFReq_accesses::.cpu.data        78690                       # number of SoftPFReq accesses(hits+misses)
system.cpu.dcache.SoftPFReq_accesses::total        78690                       # number of SoftPFReq accesses(hits+misses)
system.cpu.dcache.SoftPFReq_miss_rate::.cpu.data     0.998831                       # miss rate for SoftPFReq accesses
system.cpu.dcache.SoftPFReq_miss_rate::total     0.998831                       # miss rate for SoftPFReq accesses
system.cpu.dcache.SoftPFReq_mshr_misses::.cpu.data        39308                       # number of SoftPFReq MSHR misses
system.cpu.dcache.SoftPFReq_mshr_misses::total        39308                       # number of SoftPFReq MSHR misses
system.cpu.dcache.SoftPFReq_mshr_miss_latency::.cpu.data   3063049000                       # number of SoftPFReq MSHR miss cycles
system.cpu.dcache.SoftPFReq_mshr_miss_latency::total   3063049000                       # number of SoftPFReq MSHR miss cycles
system.cpu.dcache.SoftPFReq_mshr_miss_rate::.cpu.data     0.499530                       # mshr miss rate for SoftPFReq accesses
system.cpu.dcache.SoftPFReq_mshr_miss_rate::total     0.499530                       # mshr miss rate for SoftPFReq accesses
system.cpu.dcache.SoftPFReq_avg_mshr_miss_latency::.cpu.data 77924.315661                       # average SoftPFReq mshr miss latency
system.cpu.dcache.SoftPFReq_avg_mshr_miss_latency::total 77924.315661                       # average SoftPFReq mshr miss latency
system.cpu.dcache.LoadLockedReq_hits::.cpu.data           38                       # number of LoadLockedReq hits
system.cpu.dcache.LoadLockedReq_hits::total           38                       # number of LoadLockedReq hits
system.cpu.dcache.LoadLockedReq_accesses::.cpu.data           38                       # number of LoadLockedReq accesses(hits+misses)
system.cpu.dcache.LoadLockedReq_accesses::total           38                       # number of LoadLockedReq accesses(hits+misses)
system.cpu.dcache.StoreCondReq_hits::.cpu.data           38                       # number of StoreCondReq hits
system.cpu.dcache.StoreCondReq_hits::total           38                       # number of StoreCondReq hits
system.cpu.dcache.StoreCondReq_accesses::.cpu.data           38                       # number of StoreCondReq accesses(hits+misses)
system.cpu.dcache.StoreCondReq_accesses::total           38                       # number of StoreCondReq accesses(hits+misses)
system.cpu.dcache.tags.pwrStateResidencyTicks::UNDEFINED  13465016000                       # Cumulative time (in ticks) in various power states
system.cpu.dcache.tags.tagsinuse          1837.599228                       # Cycle average of tags in use
system.cpu.dcache.tags.total_refs             7660159                       # Total number of references to valid blocks.
system.cpu.dcache.tags.sampled_refs            120096                       # Sample count of references to valid blocks.
system.cpu.dcache.tags.avg_refs             63.783631                       # Average number of references to valid blocks.
system.cpu.dcache.tags.warmup_cycle            176500                       # Cycle when the warmup percentage was hit.
system.cpu.dcache.tags.occ_blocks::.cpu.data  1837.599228                       # Average occupied blocks per requestor
system.cpu.dcache.tags.occ_percent::.cpu.data     0.897265                       # Average percentage of cache occupancy
system.cpu.dcache.tags.occ_percent::total     0.897265                       # Average percentage of cache occupancy
system.cpu.dcache.tags.occ_task_id_blocks::1024         2048                       # Occupied blocks per task id
system.cpu.dcache.tags.age_task_id_blocks_1024::0            2                       # Occupied blocks per task id
system.cpu.dcache.tags.age_task_id_blocks_1024::1           19                       # Occupied blocks per task id
system.cpu.dcache.tags.age_task_id_blocks_1024::2          420                       # Occupied blocks per task id
system.cpu.dcache.tags.age_task_id_blocks_1024::3         1607                       # Occupied blocks per task id
system.cpu.dcache.tags.occ_task_id_percent::1024            1                       # Percentage of cache occupancy per task id
system.cpu.dcache.tags.tag_accesses          15599076                       # Number of tag accesses
system.cpu.dcache.tags.data_accesses         15599076                       # Number of data accesses
system.cpu.itb.walker.pwrStateResidencyTicks::UNDEFINED  13465016000                       # Cumulative time (in ticks) in various power states
system.cpu.itb.stage2_mmu.stage2_tlb.walker.pwrStateResidencyTicks::UNDEFINED  13465016000                       # Cumulative time (in ticks) in various power states

---------- End Simulation Statistics   ----------
