
---------- Begin Simulation Statistics ----------
final_tick                                17176016500                       # Number of ticks from beginning of simulation (restored from checkpoints and never reset)
host_inst_rate                                  51123                       # Simulator instruction rate (inst/s)
host_mem_usage                                 686728                       # Number of bytes of host memory used
host_op_rate                                    51143                       # Simulator op (including micro ops) rate (op/s)
host_seconds                                   195.61                       # Real time elapsed on the host
host_tick_rate                               87808719                       # Simulator tick rate (ticks/s)
sim_freq                                 1000000000000                       # Frequency of simulated ticks
sim_insts                                    10000000                       # Number of instructions simulated
sim_ops                                      10003984                       # Number of ops (including micro ops) simulated
sim_seconds                                  0.017176                       # Number of seconds simulated
sim_ticks                                 17176016500                       # Number of ticks simulated
system.cpu.branchPred.BTBCorrect                    0                       # Number of correct BTB predictions (this stat may not work properly.
system.cpu.branchPred.BTBHitPct             95.873461                       # BTB Hit Percentage
system.cpu.branchPred.BTBHits                   61522                       # Number of BTB hits
system.cpu.branchPred.BTBLookups                64170                       # Number of BTB lookups
system.cpu.branchPred.RASInCorrect                 16                       # Number of incorrect RAS predictions.
system.cpu.branchPred.condIncorrect               888                       # Number of conditional branches incorrect
system.cpu.branchPred.condPredicted             64618                       # Number of conditional branches predicted
system.cpu.branchPred.indirectHits                138                       # Number of indirect target hits.
system.cpu.branchPred.indirectLookups             281                       # Number of indirect predictor lookups.
system.cpu.branchPred.indirectMisses              143                       # Number of indirect misses.
system.cpu.branchPred.lookups                   66515                       # Number of BP lookups
system.cpu.branchPred.usedRAS                     606                       # Number of times the RAS was used to get a target.
system.cpu.branchPredindirectMispredicted          118                       # Number of mispredicted indirect branches.
system.cpu.committedInsts                    10000000                       # Number of instructions committed
system.cpu.committedOps                      10003984                       # Number of ops (including micro ops) committed
system.cpu.cpi                               3.435203                       # CPI: cycles per instruction
system.cpu.discardedOps                          2407                       # Number of ops (including micro ops) which were discarded before commit
system.cpu.dtb.accesses                             0                       # DTB accesses
system.cpu.dtb.align_faults                         0                       # Number of TLB faults due to alignment restrictions
system.cpu.dtb.domain_faults                        0                       # Number of TLB faults due to domain restrictions
system.cpu.dtb.flush_entries                        0                       # Number of entries that have been flushed from TLB
system.cpu.dtb.flush_tlb                            0                       # Number of times complete TLB was flushed
system.cpu.dtb.flush_tlb_asid                       0                       # Number of times TLB was flushed by ASID
system.cpu.dtb.flush_tlb_mva                        0                       # Number of times TLB was flushed by MVA
system.cpu.dtb.flush_tlb_mva_asid                   0                       # Number of times TLB was flushed by MVA & ASID
system.cpu.dtb.hits                                 0                       # DTB hits
system.cpu.dtb.inst_accesses                        0                       # ITB inst accesses
system.cpu.dtb.inst_hits                            0                       # ITB inst hits
system.cpu.dtb.inst_misses                          0                       # ITB inst misses
system.cpu.dtb.misses                               0                       # DTB misses
system.cpu.dtb.perms_faults                         0                       # Number of TLB faults due to permissions restrictions
system.cpu.dtb.prefetch_faults                      0                       # Number of TLB faults due to prefetch
system.cpu.dtb.read_accesses                        0                       # DTB read accesses
system.cpu.dtb.read_hits                            0                       # DTB read hits
system.cpu.dtb.read_misses                          0                       # DTB read misses
system.cpu.dtb.stage2_mmu.stage2_tlb.accesses            0                       # DTB accesses
system.cpu.dtb.stage2_mmu.stage2_tlb.align_faults            0                       # Number of TLB faults due to alignment restrictions
system.cpu.dtb.stage2_mmu.stage2_tlb.domain_faults            0                       # Number of TLB faults due to domain restrictions
system.cpu.dtb.stage2_mmu.stage2_tlb.flush_entries            0                       # Number of entries that have been flushed from TLB
system.cpu.dtb.stage2_mmu.stage2_tlb.flush_tlb            0                       # Number of times complete TLB was flushed
system.cpu.dtb.stage2_mmu.stage2_tlb.flush_tlb_asid            0                       # Number of times TLB was flushed by ASID
system.cpu.dtb.stage2_mmu.stage2_tlb.flush_tlb_mva            0                       # Number of times TLB was flushed by MVA
system.cpu.dtb.stage2_mmu.stage2_tlb.flush_tlb_mva_asid            0                       # Number of times TLB was flushed by MVA & ASID
system.cpu.dtb.stage2_mmu.stage2_tlb.hits            0                       # DTB hits
system.cpu.dtb.stage2_mmu.stage2_tlb.inst_accesses            0                       # ITB inst accesses
system.cpu.dtb.stage2_mmu.stage2_tlb.inst_hits            0                       # ITB inst hits
system.cpu.dtb.stage2_mmu.stage2_tlb.inst_misses            0                       # ITB inst misses
system.cpu.dtb.stage2_mmu.stage2_tlb.misses            0                       # DTB misses
system.cpu.dtb.stage2_mmu.stage2_tlb.perms_faults            0                       # Number of TLB faults due to permissions restrictions
system.cpu.dtb.stage2_mmu.stage2_tlb.prefetch_faults            0                       # Number of TLB faults due to prefetch
system.cpu.dtb.stage2_mmu.stage2_tlb.read_accesses            0                       # DTB read accesses
system.cpu.dtb.stage2_mmu.stage2_tlb.read_hits            0                       # DTB read hits
system.cpu.dtb.stage2_mmu.stage2_tlb.read_misses            0                       # DTB read misses
system.cpu.dtb.stage2_mmu.stage2_tlb.walker.walkRequestOrigin_Requested::Data            0                       # Table walker requests started/completed, data/inst
system.cpu.dtb.stage2_mmu.stage2_tlb.walker.walkRequestOrigin_Requested::Inst            0                       # Table walker requests started/completed, data/inst
system.cpu.dtb.stage2_mmu.stage2_tlb.walker.walkRequestOrigin_Requested::total            0                       # Table walker requests started/completed, data/inst
system.cpu.dtb.stage2_mmu.stage2_tlb.walker.walkRequestOrigin_Completed::Data            0                       # Table walker requests started/completed, data/inst
system.cpu.dtb.stage2_mmu.stage2_tlb.walker.walkRequestOrigin_Completed::Inst            0                       # Table walker requests started/completed, data/inst
system.cpu.dtb.stage2_mmu.stage2_tlb.walker.walkRequestOrigin_Completed::total            0                       # Table walker requests started/completed, data/inst
system.cpu.dtb.stage2_mmu.stage2_tlb.walker.walkRequestOrigin::total            0                       # Table walker requests started/completed, data/inst
system.cpu.dtb.stage2_mmu.stage2_tlb.walker.walks            0                       # Table walker walks requested
system.cpu.dtb.stage2_mmu.stage2_tlb.write_accesses            0                       # DTB write accesses
system.cpu.dtb.stage2_mmu.stage2_tlb.write_hits            0                       # DTB write hits
system.cpu.dtb.stage2_mmu.stage2_tlb.write_misses            0                       # DTB write misses
system.cpu.dtb.walker.walkRequestOrigin_Requested::Data            0                       # Table walker requests started/completed, data/inst
system.cpu.dtb.walker.walkRequestOrigin_Requested::Inst            0                       # Table walker requests started/completed, data/inst
system.cpu.dtb.walker.walkRequestOrigin_Requested::total            0                       # Table walker requests started/completed, data/inst
system.cpu.dtb.walker.walkRequestOrigin_Completed::Data            0                       # Table walker requests started/completed, data/inst
system.cpu.dtb.walker.walkRequestOrigin_Completed::Inst            0                       # Table walker requests started/completed, data/inst
system.cpu.dtb.walker.walkRequestOrigin_Completed::total            0                       # Table walker requests started/completed, data/inst
system.cpu.dtb.walker.walkRequestOrigin::total            0                       # Table walker requests started/completed, data/inst
system.cpu.dtb.walker.walks                         0                       # Table walker walks requested
system.cpu.dtb.write_accesses                       0                       # DTB write accesses
system.cpu.dtb.write_hits                           0                       # DTB write hits
system.cpu.dtb.write_misses                         0                       # DTB write misses
system.cpu.fetch2.amo_instructions                  0                       # Number of memory atomic instructions successfully decoded
system.cpu.fetch2.fp_instructions                   0                       # Number of floating point instructions successfully decoded
system.cpu.fetch2.int_instructions            3720234                       # Number of integer instructions successfully decoded
system.cpu.fetch2.load_instructions           4905505                       # Number of memory load instructions successfully decoded
system.cpu.fetch2.store_instructions          1316576                       # Number of memory store instructions successfully decoded
system.cpu.fetch2.vec_instructions                  0                       # Number of SIMD instructions successfully decoded
system.cpu.idleCycles                        23441172                       # Total number of cycles that the object has spent stopped
system.cpu.ipc                               0.291104                       # IPC: instructions per cycle
system.cpu.itb.accesses                             0                       # DTB accesses
system.cpu.itb.align_faults                         0                       # Number of TLB faults due to alignment restrictions
system.cpu.itb.domain_faults                        0                       # Number of TLB faults due to domain restrictions
system.cpu.itb.flush_entries                        0                       # Number of entries that have been flushed from TLB
system.cpu.itb.flush_tlb                            0                       # Number of times complete TLB was flushed
system.cpu.itb.flush_tlb_asid                       0                       # Number of times TLB was flushed by ASID
system.cpu.itb.flush_tlb_mva                        0                       # Number of times TLB was flushed by MVA
system.cpu.itb.flush_tlb_mva_asid                   0                       # Number of times TLB was flushed by MVA & ASID
system.cpu.itb.hits                                 0                       # DTB hits
system.cpu.itb.inst_accesses                        0                       # ITB inst accesses
system.cpu.itb.inst_hits                            0                       # ITB inst hits
system.cpu.itb.inst_misses                          0                       # ITB inst misses
system.cpu.itb.misses                               0                       # DTB misses
system.cpu.itb.perms_faults                         0                       # Number of TLB faults due to permissions restrictions
system.cpu.itb.prefetch_faults                      0                       # Number of TLB faults due to prefetch
system.cpu.itb.read_accesses                        0                       # DTB read accesses
system.cpu.itb.read_hits                            0                       # DTB read hits
system.cpu.itb.read_misses                          0                       # DTB read misses
system.cpu.itb.stage2_mmu.stage2_tlb.accesses            0                       # DTB accesses
system.cpu.itb.stage2_mmu.stage2_tlb.align_faults            0                       # Number of TLB faults due to alignment restrictions
system.cpu.itb.stage2_mmu.stage2_tlb.domain_faults            0                       # Number of TLB faults due to domain restrictions
system.cpu.itb.stage2_mmu.stage2_tlb.flush_entries            0                       # Number of entries that have been flushed from TLB
system.cpu.itb.stage2_mmu.stage2_tlb.flush_tlb            0                       # Number of times complete TLB was flushed
system.cpu.itb.stage2_mmu.stage2_tlb.flush_tlb_asid            0                       # Number of times TLB was flushed by ASID
system.cpu.itb.stage2_mmu.stage2_tlb.flush_tlb_mva            0                       # Number of times TLB was flushed by MVA
system.cpu.itb.stage2_mmu.stage2_tlb.flush_tlb_mva_asid            0                       # Number of times TLB was flushed by MVA & ASID
system.cpu.itb.stage2_mmu.stage2_tlb.hits            0                       # DTB hits
system.cpu.itb.stage2_mmu.stage2_tlb.inst_accesses            0                       # ITB inst accesses
system.cpu.itb.stage2_mmu.stage2_tlb.inst_hits            0                       # ITB inst hits
system.cpu.itb.stage2_mmu.stage2_tlb.inst_misses            0                       # ITB inst misses
system.cpu.itb.stage2_mmu.stage2_tlb.misses            0                       # DTB misses
system.cpu.itb.stage2_mmu.stage2_tlb.perms_faults            0                       # Number of TLB faults due to permissions restrictions
system.cpu.itb.stage2_mmu.stage2_tlb.prefetch_faults            0                       # Number of TLB faults due to prefetch
system.cpu.itb.stage2_mmu.stage2_tlb.read_accesses            0                       # DTB read accesses
system.cpu.itb.stage2_mmu.stage2_tlb.read_hits            0                       # DTB read hits
system.cpu.itb.stage2_mmu.stage2_tlb.read_misses            0                       # DTB read misses
system.cpu.itb.stage2_mmu.stage2_tlb.walker.walkRequestOrigin_Requested::Data            0                       # Table walker requests started/completed, data/inst
system.cpu.itb.stage2_mmu.stage2_tlb.walker.walkRequestOrigin_Requested::Inst            0                       # Table walker requests started/completed, data/inst
system.cpu.itb.stage2_mmu.stage2_tlb.walker.walkRequestOrigin_Requested::total            0                       # Table walker requests started/completed, data/inst
system.cpu.itb.stage2_mmu.stage2_tlb.walker.walkRequestOrigin_Completed::Data            0                       # Table walker requests started/completed, data/inst
system.cpu.itb.stage2_mmu.stage2_tlb.walker.walkRequestOrigin_Completed::Inst            0                       # Table walker requests started/completed, data/inst
system.cpu.itb.stage2_mmu.stage2_tlb.walker.walkRequestOrigin_Completed::total            0                       # Table walker requests started/completed, data/inst
system.cpu.itb.stage2_mmu.stage2_tlb.walker.walkRequestOrigin::total            0                       # Table walker requests started/completed, data/inst
system.cpu.itb.stage2_mmu.stage2_tlb.walker.walks            0                       # Table walker walks requested
system.cpu.itb.stage2_mmu.stage2_tlb.write_accesses            0                       # DTB write accesses
system.cpu.itb.stage2_mmu.stage2_tlb.write_hits            0                       # DTB write hits
system.cpu.itb.stage2_mmu.stage2_tlb.write_misses            0                       # DTB write misses
system.cpu.itb.walker.walkRequestOrigin_Requested::Data            0                       # Table walker requests started/completed, data/inst
system.cpu.itb.walker.walkRequestOrigin_Requested::Inst            0                       # Table walker requests started/completed, data/inst
system.cpu.itb.walker.walkRequestOrigin_Requested::total            0                       # Table walker requests started/completed, data/inst
system.cpu.itb.walker.walkRequestOrigin_Completed::Data            0                       # Table walker requests started/completed, data/inst
system.cpu.itb.walker.walkRequestOrigin_Completed::Inst            0                       # Table walker requests started/completed, data/inst
system.cpu.itb.walker.walkRequestOrigin_Completed::total            0                       # Table walker requests started/completed, data/inst
system.cpu.itb.walker.walkRequestOrigin::total            0                       # Table walker requests started/completed, data/inst
system.cpu.itb.walker.walks                         0                       # Table walker walks requested
system.cpu.itb.write_accesses                       0                       # DTB write accesses
system.cpu.itb.write_hits                           0                       # DTB write hits
system.cpu.itb.write_misses                         0                       # DTB write misses
system.cpu.numCycles                         34352033                       # number of cpu cycles simulated
system.cpu.numFetchSuspends                         0                       # Number of times Execute suspended instruction fetching
system.cpu.numWorkItemsCompleted                    0                       # number of work items this cpu completed
system.cpu.numWorkItemsStarted                      0                       # number of work items this cpu started
system.cpu.op_class_0::No_OpClass                   0      0.00%      0.00% # Class of committed instruction
system.cpu.op_class_0::IntAlu                 3781097     37.80%     37.80% # Class of committed instruction
system.cpu.op_class_0::IntMult                     33      0.00%     37.80% # Class of committed instruction
system.cpu.op_class_0::IntDiv                       0      0.00%     37.80% # Class of committed instruction
system.cpu.op_class_0::FloatAdd                     0      0.00%     37.80% # Class of committed instruction
system.cpu.op_class_0::FloatCmp                     0      0.00%     37.80% # Class of committed instruction
system.cpu.op_class_0::FloatCvt                     0      0.00%     37.80% # Class of committed instruction
system.cpu.op_class_0::FloatMult                    0      0.00%     37.80% # Class of committed instruction
system.cpu.op_class_0::FloatMultAcc                 0      0.00%     37.80% # Class of committed instruction
system.cpu.op_class_0::FloatDiv                     0      0.00%     37.80% # Class of committed instruction
system.cpu.op_class_0::FloatMisc                    0      0.00%     37.80% # Class of committed instruction
system.cpu.op_class_0::FloatSqrt                    0      0.00%     37.80% # Class of committed instruction
system.cpu.op_class_0::SimdAdd                      0      0.00%     37.80% # Class of committed instruction
system.cpu.op_class_0::SimdAddAcc                   0      0.00%     37.80% # Class of committed instruction
system.cpu.op_class_0::SimdAlu                      0      0.00%     37.80% # Class of committed instruction
system.cpu.op_class_0::SimdCmp                      0      0.00%     37.80% # Class of committed instruction
system.cpu.op_class_0::SimdCvt                      0      0.00%     37.80% # Class of committed instruction
system.cpu.op_class_0::SimdMisc                     0      0.00%     37.80% # Class of committed instruction
system.cpu.op_class_0::SimdMult                     0      0.00%     37.80% # Class of committed instruction
system.cpu.op_class_0::SimdMultAcc                  0      0.00%     37.80% # Class of committed instruction
system.cpu.op_class_0::SimdShift                    0      0.00%     37.80% # Class of committed instruction
system.cpu.op_class_0::SimdShiftAcc                 0      0.00%     37.80% # Class of committed instruction
system.cpu.op_class_0::SimdDiv                      0      0.00%     37.80% # Class of committed instruction
system.cpu.op_class_0::SimdSqrt                     0      0.00%     37.80% # Class of committed instruction
system.cpu.op_class_0::SimdFloatAdd                 0      0.00%     37.80% # Class of committed instruction
system.cpu.op_class_0::SimdFloatAlu                 0      0.00%     37.80% # Class of committed instruction
system.cpu.op_class_0::SimdFloatCmp                 2      0.00%     37.80% # Class of committed instruction
system.cpu.op_class_0::SimdFloatCvt                 0      0.00%     37.80% # Class of committed instruction
system.cpu.op_class_0::SimdFloatDiv                 0      0.00%     37.80% # Class of committed instruction
system.cpu.op_class_0::SimdFloatMisc               23      0.00%     37.80% # Class of committed instruction
system.cpu.op_class_0::SimdFloatMult                0      0.00%     37.80% # Class of committed instruction
system.cpu.op_class_0::SimdFloatMultAcc             0      0.00%     37.80% # Class of committed instruction
system.cpu.op_class_0::SimdFloatSqrt                0      0.00%     37.80% # Class of committed instruction
system.cpu.op_class_0::SimdReduceAdd                0      0.00%     37.80% # Class of committed instruction
system.cpu.op_class_0::SimdReduceAlu                0      0.00%     37.80% # Class of committed instruction
system.cpu.op_class_0::SimdReduceCmp                0      0.00%     37.80% # Class of committed instruction
system.cpu.op_class_0::SimdFloatReduceAdd            0      0.00%     37.80% # Class of committed instruction
system.cpu.op_class_0::SimdFloatReduceCmp            0      0.00%     37.80% # Class of committed instruction
system.cpu.op_class_0::SimdAes                      0      0.00%     37.80% # Class of committed instruction
system.cpu.op_class_0::SimdAesMix                   0      0.00%     37.80% # Class of committed instruction
system.cpu.op_class_0::SimdSha1Hash                 0      0.00%     37.80% # Class of committed instruction
system.cpu.op_class_0::SimdSha1Hash2                0      0.00%     37.80% # Class of committed instruction
system.cpu.op_class_0::SimdSha256Hash               0      0.00%     37.80% # Class of committed instruction
system.cpu.op_class_0::SimdSha256Hash2              0      0.00%     37.80% # Class of committed instruction
system.cpu.op_class_0::SimdShaSigma2                0      0.00%     37.80% # Class of committed instruction
system.cpu.op_class_0::SimdShaSigma3                0      0.00%     37.80% # Class of committed instruction
system.cpu.op_class_0::SimdPredAlu                  0      0.00%     37.80% # Class of committed instruction
system.cpu.op_class_0::MemRead                4904845     49.03%     86.83% # Class of committed instruction
system.cpu.op_class_0::MemWrite               1317984     13.17%    100.00% # Class of committed instruction
system.cpu.op_class_0::FloatMemRead                 0      0.00%    100.00% # Class of committed instruction
system.cpu.op_class_0::FloatMemWrite                0      0.00%    100.00% # Class of committed instruction
system.cpu.op_class_0::IprAccess                    0      0.00%    100.00% # Class of committed instruction
system.cpu.op_class_0::InstPrefetch                 0      0.00%    100.00% # Class of committed instruction
system.cpu.op_class_0::total                 10003984                       # Class of committed instruction
system.cpu.tickCycles                        10910861                       # Number of cycles that the object actually ticked
system.cpu.workload.numSyscalls                    18                       # Number of system calls
system.membus.snoop_filter.hit_multi_requests            0                       # Number of requests hitting in the snoop filter with multiple (>1) holders of the requested data.
system.membus.snoop_filter.hit_multi_snoops            0                       # Number of snoops hitting in the snoop filter with multiple (>1) holders of the requested data.
system.membus.snoop_filter.hit_single_requests       117114                       # Number of requests hitting in the snoop filter with a single holder of the requested data.
system.membus.snoop_filter.hit_single_snoops            0                       # Number of snoops hitting in the snoop filter with a single holder of the requested data.
system.membus.snoop_filter.tot_requests        267320                       # Total number of requests made to the snoop filter.
system.membus.snoop_filter.tot_snoops               0                       # Total number of snoops made to the snoop filter.
system.tol2bus.snoop_filter.hit_multi_requests           67                       # Number of requests hitting in the snoop filter with multiple (>1) holders of the requested data.
system.tol2bus.snoop_filter.hit_multi_snoops            1                       # Number of snoops hitting in the snoop filter with multiple (>1) holders of the requested data.
system.tol2bus.snoop_filter.hit_single_requests       149099                       # Number of requests hitting in the snoop filter with a single holder of the requested data.
system.tol2bus.snoop_filter.hit_single_snoops          323                       # Number of snoops hitting in the snoop filter with a single holder of the requested data.
system.tol2bus.snoop_filter.tot_requests       299542                       # Total number of requests made to the snoop filter.
system.tol2bus.snoop_filter.tot_snoops            324                       # Total number of snoops made to the snoop filter.
system.membus.pwrStateResidencyTicks::UNDEFINED  17176016500                       # Cumulative time (in ticks) in various power states
system.membus.trans_dist::ReadResp                770                       # Transaction distribution
system.membus.trans_dist::WritebackDirty       116683                       # Transaction distribution
system.membus.trans_dist::CleanEvict              431                       # Transaction distribution
system.membus.trans_dist::ReadExReq            149436                       # Transaction distribution
system.membus.trans_dist::ReadExResp           149436                       # Transaction distribution
system.membus.trans_dist::ReadSharedReq           770                       # Transaction distribution
system.membus.pkt_count_system.l2.mem_side::system.mem_ctrls.port       417526                       # Packet count per connected master and slave (bytes)
system.membus.pkt_count::total                 417526                       # Packet count per connected master and slave (bytes)
system.membus.pkt_size_system.l2.mem_side::system.mem_ctrls.port     17080896                       # Cumulative packet size per connected master and slave (bytes)
system.membus.pkt_size::total                17080896                       # Cumulative packet size per connected master and slave (bytes)
system.membus.snoops                                0                       # Total snoops (count)
system.membus.snoopTraffic                          0                       # Total snoop traffic (bytes)
system.membus.snoop_fanout::samples            150206                       # Request fanout histogram
system.membus.snoop_fanout::mean                    0                       # Request fanout histogram
system.membus.snoop_fanout::stdev                   0                       # Request fanout histogram
system.membus.snoop_fanout::underflows              0      0.00%      0.00% # Request fanout histogram
system.membus.snoop_fanout::0                  150206    100.00%    100.00% # Request fanout histogram
system.membus.snoop_fanout::1                       0      0.00%    100.00% # Request fanout histogram
system.membus.snoop_fanout::overflows               0      0.00%    100.00% # Request fanout histogram
system.membus.snoop_fanout::min_value               0                       # Request fanout histogram
system.membus.snoop_fanout::max_value               0                       # Request fanout histogram
system.membus.snoop_fanout::total              150206                       # Request fanout histogram
system.membus.respLayer1.occupancy          791470500                       # Layer occupancy (ticks)
system.membus.respLayer1.utilization              4.6                       # Layer utilization (%)
system.membus.reqLayer0.occupancy           793921000                       # Layer occupancy (ticks)
system.membus.reqLayer0.utilization               4.6                       # Layer utilization (%)
system.tol2bus.pwrStateResidencyTicks::UNDEFINED  17176016500                       # Cumulative time (in ticks) in various power states
system.tol2bus.trans_dist::ReadResp              1008                       # Transaction distribution
system.tol2bus.trans_dist::WritebackDirty       265113                       # Transaction distribution
system.tol2bus.trans_dist::WritebackClean          507                       # Transaction distribution
system.tol2bus.trans_dist::CleanEvict             916                       # Transaction distribution
system.tol2bus.trans_dist::ReadExReq           149436                       # Transaction distribution
system.tol2bus.trans_dist::ReadExResp          149436                       # Transaction distribution
system.tol2bus.trans_dist::ReadCleanReq           829                       # Transaction distribution
system.tol2bus.trans_dist::ReadSharedReq          179                       # Transaction distribution
system.tol2bus.pkt_count_system.cpu.icache.mem_side::system.l2.cpu_side         2165                       # Packet count per connected master and slave (bytes)
system.tol2bus.pkt_count_system.cpu.dcache.mem_side::system.l2.cpu_side       447821                       # Packet count per connected master and slave (bytes)
system.tol2bus.pkt_count::total                449986                       # Packet count per connected master and slave (bytes)
system.tol2bus.pkt_size_system.cpu.icache.mem_side::system.l2.cpu_side        85504                       # Cumulative packet size per connected master and slave (bytes)
system.tol2bus.pkt_size_system.cpu.dcache.mem_side::system.l2.cpu_side     19074880                       # Cumulative packet size per connected master and slave (bytes)
system.tol2bus.pkt_size::total               19160384                       # Cumulative packet size per connected master and slave (bytes)
system.tol2bus.snoops                          117438                       # Total snoops (count)
system.tol2bus.snoopTraffic                   7467712                       # Total snoop traffic (bytes)
system.tol2bus.snoop_fanout::samples           267882                       # Request fanout histogram
system.tol2bus.snoop_fanout::mean            0.001467                       # Request fanout histogram
system.tol2bus.snoop_fanout::stdev           0.038372                       # Request fanout histogram
system.tol2bus.snoop_fanout::underflows             0      0.00%      0.00% # Request fanout histogram
system.tol2bus.snoop_fanout::0                 267490     99.85%     99.85% # Request fanout histogram
system.tol2bus.snoop_fanout::1                    391      0.15%    100.00% # Request fanout histogram
system.tol2bus.snoop_fanout::2                      1      0.00%    100.00% # Request fanout histogram
system.tol2bus.snoop_fanout::overflows              0      0.00%    100.00% # Request fanout histogram
system.tol2bus.snoop_fanout::min_value              0                       # Request fanout histogram
system.tol2bus.snoop_fanout::max_value              2                       # Request fanout histogram
system.tol2bus.snoop_fanout::total             267882                       # Request fanout histogram
system.tol2bus.reqLayer0.occupancy          298708000                       # Layer occupancy (ticks)
system.tol2bus.reqLayer0.utilization              1.7                       # Layer utilization (%)
system.tol2bus.respLayer1.occupancy         224426492                       # Layer occupancy (ticks)
system.tol2bus.respLayer1.utilization             1.3                       # Layer utilization (%)
system.tol2bus.respLayer0.occupancy           1245496                       # Layer occupancy (ticks)
system.tol2bus.respLayer0.utilization             0.0                       # Layer utilization (%)
system.voltage_domain.voltage                       1                       # Voltage in Volts
system.clk_domain.clock                          1000                       # Clock period in ticks
system.l2.pwrStateResidencyTicks::UNDEFINED  17176016500                       # Cumulative time (in ticks) in various power states
system.l2.demand_hits::.cpu.inst                  213                       # number of demand (read+write) hits
system.l2.demand_hits::.cpu.data                   13                       # number of demand (read+write) hits
system.l2.demand_hits::total                      226                       # number of demand (read+write) hits
system.l2.overall_hits::.cpu.inst                 213                       # number of overall hits
system.l2.overall_hits::.cpu.data                  13                       # number of overall hits
system.l2.overall_hits::total                     226                       # number of overall hits
system.l2.demand_misses::.cpu.inst                616                       # number of demand (read+write) misses
system.l2.demand_misses::.cpu.data             149602                       # number of demand (read+write) misses
system.l2.demand_misses::total                 150218                       # number of demand (read+write) misses
system.l2.overall_misses::.cpu.inst               616                       # number of overall misses
system.l2.overall_misses::.cpu.data            149602                       # number of overall misses
system.l2.overall_misses::total                150218                       # number of overall misses
system.l2.demand_miss_latency::.cpu.inst     46427500                       # number of demand (read+write) miss cycles
system.l2.demand_miss_latency::.cpu.data  11791784500                       # number of demand (read+write) miss cycles
system.l2.demand_miss_latency::total      11838212000                       # number of demand (read+write) miss cycles
system.l2.overall_miss_latency::.cpu.inst     46427500                       # number of overall miss cycles
system.l2.overall_miss_latency::.cpu.data  11791784500                       # number of overall miss cycles
system.l2.overall_miss_latency::total     11838212000                       # number of overall miss cycles
system.l2.demand_accesses::.cpu.inst              829                       # number of demand (read+write) accesses
system.l2.demand_accesses::.cpu.data           149615                       # number of demand (read+write) accesses
system.l2.demand_accesses::total               150444                       # number of demand (read+write) accesses
system.l2.overall_accesses::.cpu.inst             829                       # number of overall (read+write) accesses
system.l2.overall_accesses::.cpu.data          149615                       # number of overall (read+write) accesses
system.l2.overall_accesses::total              150444                       # number of overall (read+write) accesses
system.l2.demand_miss_rate::.cpu.inst        0.743064                       # miss rate for demand accesses
system.l2.demand_miss_rate::.cpu.data        0.999913                       # miss rate for demand accesses
system.l2.demand_miss_rate::total            0.998498                       # miss rate for demand accesses
system.l2.overall_miss_rate::.cpu.inst       0.743064                       # miss rate for overall accesses
system.l2.overall_miss_rate::.cpu.data       0.999913                       # miss rate for overall accesses
system.l2.overall_miss_rate::total           0.998498                       # miss rate for overall accesses
system.l2.demand_avg_miss_latency::.cpu.inst 75369.318182                       # average overall miss latency
system.l2.demand_avg_miss_latency::.cpu.data 78821.035147                       # average overall miss latency
system.l2.demand_avg_miss_latency::total 78806.880667                       # average overall miss latency
system.l2.overall_avg_miss_latency::.cpu.inst 75369.318182                       # average overall miss latency
system.l2.overall_avg_miss_latency::.cpu.data 78821.035147                       # average overall miss latency
system.l2.overall_avg_miss_latency::total 78806.880667                       # average overall miss latency
system.l2.blocked_cycles::no_mshrs                  0                       # number of cycles access was blocked
system.l2.blocked_cycles::no_targets                0                       # number of cycles access was blocked
system.l2.blocked::no_mshrs                         0                       # number of cycles access was blocked
system.l2.blocked::no_targets                       0                       # number of cycles access was blocked
system.l2.avg_blocked_cycles::no_mshrs            nan                       # average number of cycles each access was blocked
system.l2.avg_blocked_cycles::no_targets          nan                       # average number of cycles each access was blocked
system.l2.writebacks::.writebacks              116683                       # number of writebacks
system.l2.writebacks::total                    116683                       # number of writebacks
system.l2.demand_mshr_hits::.cpu.inst               4                       # number of demand (read+write) MSHR hits
system.l2.demand_mshr_hits::.cpu.data               8                       # number of demand (read+write) MSHR hits
system.l2.demand_mshr_hits::total                  12                       # number of demand (read+write) MSHR hits
system.l2.overall_mshr_hits::.cpu.inst              4                       # number of overall MSHR hits
system.l2.overall_mshr_hits::.cpu.data              8                       # number of overall MSHR hits
system.l2.overall_mshr_hits::total                 12                       # number of overall MSHR hits
system.l2.demand_mshr_misses::.cpu.inst           612                       # number of demand (read+write) MSHR misses
system.l2.demand_mshr_misses::.cpu.data        149594                       # number of demand (read+write) MSHR misses
system.l2.demand_mshr_misses::total            150206                       # number of demand (read+write) MSHR misses
system.l2.overall_mshr_misses::.cpu.inst          612                       # number of overall MSHR misses
system.l2.overall_mshr_misses::.cpu.data       149594                       # number of overall MSHR misses
system.l2.overall_mshr_misses::total           150206                       # number of overall MSHR misses
system.l2.demand_mshr_miss_latency::.cpu.inst     40049000                       # number of demand (read+write) MSHR miss cycles
system.l2.demand_mshr_miss_latency::.cpu.data  10295284500                       # number of demand (read+write) MSHR miss cycles
system.l2.demand_mshr_miss_latency::total  10335333500                       # number of demand (read+write) MSHR miss cycles
system.l2.overall_mshr_miss_latency::.cpu.inst     40049000                       # number of overall MSHR miss cycles
system.l2.overall_mshr_miss_latency::.cpu.data  10295284500                       # number of overall MSHR miss cycles
system.l2.overall_mshr_miss_latency::total  10335333500                       # number of overall MSHR miss cycles
system.l2.demand_mshr_miss_rate::.cpu.inst     0.738239                       # mshr miss rate for demand accesses
system.l2.demand_mshr_miss_rate::.cpu.data     0.999860                       # mshr miss rate for demand accesses
system.l2.demand_mshr_miss_rate::total       0.998418                       # mshr miss rate for demand accesses
system.l2.overall_mshr_miss_rate::.cpu.inst     0.738239                       # mshr miss rate for overall accesses
system.l2.overall_mshr_miss_rate::.cpu.data     0.999860                       # mshr miss rate for overall accesses
system.l2.overall_mshr_miss_rate::total      0.998418                       # mshr miss rate for overall accesses
system.l2.demand_avg_mshr_miss_latency::.cpu.inst 65439.542484                       # average overall mshr miss latency
system.l2.demand_avg_mshr_miss_latency::.cpu.data 68821.506879                       # average overall mshr miss latency
system.l2.demand_avg_mshr_miss_latency::total 68807.727388                       # average overall mshr miss latency
system.l2.overall_avg_mshr_miss_latency::.cpu.inst 65439.542484                       # average overall mshr miss latency
system.l2.overall_avg_mshr_miss_latency::.cpu.data 68821.506879                       # average overall mshr miss latency
system.l2.overall_avg_mshr_miss_latency::total 68807.727388                       # average overall mshr miss latency
system.l2.replacements                         117438                       # number of replacements
system.l2.WritebackDirty_hits::.writebacks       148430                       # number of WritebackDirty hits
system.l2.WritebackDirty_hits::total           148430                       # number of WritebackDirty hits
system.l2.WritebackDirty_accesses::.writebacks       148430                       # number of WritebackDirty accesses(hits+misses)
system.l2.WritebackDirty_accesses::total       148430                       # number of WritebackDirty accesses(hits+misses)
system.l2.WritebackClean_hits::.writebacks          468                       # number of WritebackClean hits
system.l2.WritebackClean_hits::total              468                       # number of WritebackClean hits
system.l2.WritebackClean_accesses::.writebacks          468                       # number of WritebackClean accesses(hits+misses)
system.l2.WritebackClean_accesses::total          468                       # number of WritebackClean accesses(hits+misses)
system.l2.ReadExReq_misses::.cpu.data          149436                       # number of ReadExReq misses
system.l2.ReadExReq_misses::total              149436                       # number of ReadExReq misses
system.l2.ReadExReq_miss_latency::.cpu.data  11778692500                       # number of ReadExReq miss cycles
system.l2.ReadExReq_miss_latency::total   11778692500                       # number of ReadExReq miss cycles
system.l2.ReadExReq_accesses::.cpu.data        149436                       # number of ReadExReq accesses(hits+misses)
system.l2.ReadExReq_accesses::total            149436                       # number of ReadExReq accesses(hits+misses)
system.l2.ReadExReq_miss_rate::.cpu.data            1                       # miss rate for ReadExReq accesses
system.l2.ReadExReq_miss_rate::total                1                       # miss rate for ReadExReq accesses
system.l2.ReadExReq_avg_miss_latency::.cpu.data 78820.983565                       # average ReadExReq miss latency
system.l2.ReadExReq_avg_miss_latency::total 78820.983565                       # average ReadExReq miss latency
system.l2.ReadExReq_mshr_misses::.cpu.data       149436                       # number of ReadExReq MSHR misses
system.l2.ReadExReq_mshr_misses::total         149436                       # number of ReadExReq MSHR misses
system.l2.ReadExReq_mshr_miss_latency::.cpu.data  10284332500                       # number of ReadExReq MSHR miss cycles
system.l2.ReadExReq_mshr_miss_latency::total  10284332500                       # number of ReadExReq MSHR miss cycles
system.l2.ReadExReq_mshr_miss_rate::.cpu.data            1                       # mshr miss rate for ReadExReq accesses
system.l2.ReadExReq_mshr_miss_rate::total            1                       # mshr miss rate for ReadExReq accesses
system.l2.ReadExReq_avg_mshr_miss_latency::.cpu.data 68820.983565                       # average ReadExReq mshr miss latency
system.l2.ReadExReq_avg_mshr_miss_latency::total 68820.983565                       # average ReadExReq mshr miss latency
system.l2.ReadCleanReq_hits::.cpu.inst            213                       # number of ReadCleanReq hits
system.l2.ReadCleanReq_hits::total                213                       # number of ReadCleanReq hits
system.l2.ReadCleanReq_misses::.cpu.inst          616                       # number of ReadCleanReq misses
system.l2.ReadCleanReq_misses::total              616                       # number of ReadCleanReq misses
system.l2.ReadCleanReq_miss_latency::.cpu.inst     46427500                       # number of ReadCleanReq miss cycles
system.l2.ReadCleanReq_miss_latency::total     46427500                       # number of ReadCleanReq miss cycles
system.l2.ReadCleanReq_accesses::.cpu.inst          829                       # number of ReadCleanReq accesses(hits+misses)
system.l2.ReadCleanReq_accesses::total            829                       # number of ReadCleanReq accesses(hits+misses)
system.l2.ReadCleanReq_miss_rate::.cpu.inst     0.743064                       # miss rate for ReadCleanReq accesses
system.l2.ReadCleanReq_miss_rate::total      0.743064                       # miss rate for ReadCleanReq accesses
system.l2.ReadCleanReq_avg_miss_latency::.cpu.inst 75369.318182                       # average ReadCleanReq miss latency
system.l2.ReadCleanReq_avg_miss_latency::total 75369.318182                       # average ReadCleanReq miss latency
system.l2.ReadCleanReq_mshr_hits::.cpu.inst            4                       # number of ReadCleanReq MSHR hits
system.l2.ReadCleanReq_mshr_hits::total             4                       # number of ReadCleanReq MSHR hits
system.l2.ReadCleanReq_mshr_misses::.cpu.inst          612                       # number of ReadCleanReq MSHR misses
system.l2.ReadCleanReq_mshr_misses::total          612                       # number of ReadCleanReq MSHR misses
system.l2.ReadCleanReq_mshr_miss_latency::.cpu.inst     40049000                       # number of ReadCleanReq MSHR miss cycles
system.l2.ReadCleanReq_mshr_miss_latency::total     40049000                       # number of ReadCleanReq MSHR miss cycles
system.l2.ReadCleanReq_mshr_miss_rate::.cpu.inst     0.738239                       # mshr miss rate for ReadCleanReq accesses
system.l2.ReadCleanReq_mshr_miss_rate::total     0.738239                       # mshr miss rate for ReadCleanReq accesses
system.l2.ReadCleanReq_avg_mshr_miss_latency::.cpu.inst 65439.542484                       # average ReadCleanReq mshr miss latency
system.l2.ReadCleanReq_avg_mshr_miss_latency::total 65439.542484                       # average ReadCleanReq mshr miss latency
system.l2.ReadSharedReq_hits::.cpu.data            13                       # number of ReadSharedReq hits
system.l2.ReadSharedReq_hits::total                13                       # number of ReadSharedReq hits
system.l2.ReadSharedReq_misses::.cpu.data          166                       # number of ReadSharedReq misses
system.l2.ReadSharedReq_misses::total             166                       # number of ReadSharedReq misses
system.l2.ReadSharedReq_miss_latency::.cpu.data     13092000                       # number of ReadSharedReq miss cycles
system.l2.ReadSharedReq_miss_latency::total     13092000                       # number of ReadSharedReq miss cycles
system.l2.ReadSharedReq_accesses::.cpu.data          179                       # number of ReadSharedReq accesses(hits+misses)
system.l2.ReadSharedReq_accesses::total           179                       # number of ReadSharedReq accesses(hits+misses)
system.l2.ReadSharedReq_miss_rate::.cpu.data     0.927374                       # miss rate for ReadSharedReq accesses
system.l2.ReadSharedReq_miss_rate::total     0.927374                       # miss rate for ReadSharedReq accesses
system.l2.ReadSharedReq_avg_miss_latency::.cpu.data 78867.469880                       # average ReadSharedReq miss latency
system.l2.ReadSharedReq_avg_miss_latency::total 78867.469880                       # average ReadSharedReq miss latency
system.l2.ReadSharedReq_mshr_hits::.cpu.data            8                       # number of ReadSharedReq MSHR hits
system.l2.ReadSharedReq_mshr_hits::total            8                       # number of ReadSharedReq MSHR hits
system.l2.ReadSharedReq_mshr_misses::.cpu.data          158                       # number of ReadSharedReq MSHR misses
system.l2.ReadSharedReq_mshr_misses::total          158                       # number of ReadSharedReq MSHR misses
system.l2.ReadSharedReq_mshr_miss_latency::.cpu.data     10952000                       # number of ReadSharedReq MSHR miss cycles
system.l2.ReadSharedReq_mshr_miss_latency::total     10952000                       # number of ReadSharedReq MSHR miss cycles
system.l2.ReadSharedReq_mshr_miss_rate::.cpu.data     0.882682                       # mshr miss rate for ReadSharedReq accesses
system.l2.ReadSharedReq_mshr_miss_rate::total     0.882682                       # mshr miss rate for ReadSharedReq accesses
system.l2.ReadSharedReq_avg_mshr_miss_latency::.cpu.data 69316.455696                       # average ReadSharedReq mshr miss latency
system.l2.ReadSharedReq_avg_mshr_miss_latency::total 69316.455696                       # average ReadSharedReq mshr miss latency
system.l2.tags.pwrStateResidencyTicks::UNDEFINED  17176016500                       # Cumulative time (in ticks) in various power states
system.l2.tags.tagsinuse                 29371.712762                       # Cycle average of tags in use
system.l2.tags.total_refs                      299463                       # Total number of references to valid blocks.
system.l2.tags.sampled_refs                    150206                       # Sample count of references to valid blocks.
system.l2.tags.avg_refs                      1.993682                       # Average number of references to valid blocks.
system.l2.tags.warmup_cycle                     77000                       # Cycle when the warmup percentage was hit.
system.l2.tags.occ_blocks::.cpu.inst       121.055947                       # Average occupied blocks per requestor
system.l2.tags.occ_blocks::.cpu.data     29250.656816                       # Average occupied blocks per requestor
system.l2.tags.occ_percent::.cpu.inst        0.003694                       # Average percentage of cache occupancy
system.l2.tags.occ_percent::.cpu.data        0.892659                       # Average percentage of cache occupancy
system.l2.tags.occ_percent::total            0.896354                       # Average percentage of cache occupancy
system.l2.tags.occ_task_id_blocks::1024         32768                       # Occupied blocks per task id
system.l2.tags.age_task_id_blocks_1024::0           88                       # Occupied blocks per task id
system.l2.tags.age_task_id_blocks_1024::1          778                       # Occupied blocks per task id
system.l2.tags.age_task_id_blocks_1024::2         7787                       # Occupied blocks per task id
system.l2.tags.age_task_id_blocks_1024::3        24115                       # Occupied blocks per task id
system.l2.tags.occ_task_id_percent::1024            1                       # Percentage of cache occupancy per task id
system.l2.tags.tag_accesses                   2546006                       # Number of tag accesses
system.l2.tags.data_accesses                  2546006                       # Number of data accesses
system.cpu_voltage_domain.voltage                   1                       # Voltage in Volts
system.mem_ctrls.pwrStateResidencyTicks::UNDEFINED  17176016500                       # Cumulative time (in ticks) in various power states
system.mem_ctrls.bytes_read::.cpu.inst          39168                       # Number of bytes read from this memory
system.mem_ctrls.bytes_read::.cpu.data        9574016                       # Number of bytes read from this memory
system.mem_ctrls.bytes_read::total            9613184                       # Number of bytes read from this memory
system.mem_ctrls.bytes_inst_read::.cpu.inst        39168                       # Number of instructions bytes read from this memory
system.mem_ctrls.bytes_inst_read::total         39168                       # Number of instructions bytes read from this memory
system.mem_ctrls.bytes_written::.writebacks      7467712                       # Number of bytes written to this memory
system.mem_ctrls.bytes_written::total         7467712                       # Number of bytes written to this memory
system.mem_ctrls.num_reads::.cpu.inst             612                       # Number of read requests responded to by this memory
system.mem_ctrls.num_reads::.cpu.data          149594                       # Number of read requests responded to by this memory
system.mem_ctrls.num_reads::total              150206                       # Number of read requests responded to by this memory
system.mem_ctrls.num_writes::.writebacks       116683                       # Number of write requests responded to by this memory
system.mem_ctrls.num_writes::total             116683                       # Number of write requests responded to by this memory
system.mem_ctrls.bw_read::.cpu.inst           2280389                       # Total read bandwidth from this memory (bytes/s)
system.mem_ctrls.bw_read::.cpu.data         557406078                       # Total read bandwidth from this memory (bytes/s)
system.mem_ctrls.bw_read::total             559686467                       # Total read bandwidth from this memory (bytes/s)
system.mem_ctrls.bw_inst_read::.cpu.inst      2280389                       # Instruction read bandwidth from this memory (bytes/s)
system.mem_ctrls.bw_inst_read::total          2280389                       # Instruction read bandwidth from this memory (bytes/s)
system.mem_ctrls.bw_write::.writebacks      434775549                       # Write bandwidth from this memory (bytes/s)
system.mem_ctrls.bw_write::total            434775549                       # Write bandwidth from this memory (bytes/s)
system.mem_ctrls.bw_total::.writebacks      434775549                       # Total bandwidth to/from this memory (bytes/s)
system.mem_ctrls.bw_total::.cpu.inst          2280389                       # Total bandwidth to/from this memory (bytes/s)
system.mem_ctrls.bw_total::.cpu.data        557406078                       # Total bandwidth to/from this memory (bytes/s)
system.mem_ctrls.bw_total::total            994462016                       # Total bandwidth to/from this memory (bytes/s)
system.mem_ctrls.avgPriority_.writebacks::samples    116683.00                       # Average QoS priority value for accepted requests
system.mem_ctrls.avgPriority_.cpu.inst::samples       612.00                       # Average QoS priority value for accepted requests
system.mem_ctrls.avgPriority_.cpu.data::samples    149594.00                       # Average QoS priority value for accepted requests
system.mem_ctrls.priorityMinLatency      0.000000018750                       # per QoS priority minimum request to response latency (s)
system.mem_ctrls.priorityMaxLatency      0.000510800500                       # per QoS priority maximum request to response latency (s)
system.mem_ctrls.numReadWriteTurnArounds         7288                       # Number of turnarounds from READ to WRITE
system.mem_ctrls.numWriteReadTurnArounds         7288                       # Number of turnarounds from WRITE to READ
system.mem_ctrls.numStayReadState              413959                       # Number of times bus staying in READ state
system.mem_ctrls.numStayWriteState             109688                       # Number of times bus staying in WRITE state
system.mem_ctrls.readReqs                      150206                       # Number of read requests accepted
system.mem_ctrls.writeReqs                     116683                       # Number of write requests accepted
system.mem_ctrls.readBursts                    150206                       # Number of DRAM read bursts, including those serviced by the write queue
system.mem_ctrls.writeBursts                   116683                       # Number of DRAM write bursts, including those merged in the write queue
system.mem_ctrls.servicedByWrQ                      0                       # Number of DRAM read bursts serviced by the write queue
system.mem_ctrls.mergedWrBursts                     0                       # Number of DRAM write bursts merged with an existing one
system.mem_ctrls.neitherReadNorWriteReqs            0                       # Number of requests that are neither read nor write
system.mem_ctrls.perBankRdBursts::0              9477                       # Per bank write bursts
system.mem_ctrls.perBankRdBursts::1              9393                       # Per bank write bursts
system.mem_ctrls.perBankRdBursts::2              9362                       # Per bank write bursts
system.mem_ctrls.perBankRdBursts::3              9318                       # Per bank write bursts
system.mem_ctrls.perBankRdBursts::4              9490                       # Per bank write bursts
system.mem_ctrls.perBankRdBursts::5              9363                       # Per bank write bursts
system.mem_ctrls.perBankRdBursts::6              9376                       # Per bank write bursts
system.mem_ctrls.perBankRdBursts::7              9414                       # Per bank write bursts
system.mem_ctrls.perBankRdBursts::8              9399                       # Per bank write bursts
system.mem_ctrls.perBankRdBursts::9              9383                       # Per bank write bursts
system.mem_ctrls.perBankRdBursts::10             9351                       # Per bank write bursts
system.mem_ctrls.perBankRdBursts::11             9355                       # Per bank write bursts
system.mem_ctrls.perBankRdBursts::12             9419                       # Per bank write bursts
system.mem_ctrls.perBankRdBursts::13             9350                       # Per bank write bursts
system.mem_ctrls.perBankRdBursts::14             9376                       # Per bank write bursts
system.mem_ctrls.perBankRdBursts::15             9380                       # Per bank write bursts
system.mem_ctrls.perBankWrBursts::0              7329                       # Per bank write bursts
system.mem_ctrls.perBankWrBursts::1              7331                       # Per bank write bursts
system.mem_ctrls.perBankWrBursts::2              7277                       # Per bank write bursts
system.mem_ctrls.perBankWrBursts::3              7168                       # Per bank write bursts
system.mem_ctrls.perBankWrBursts::4              7297                       # Per bank write bursts
system.mem_ctrls.perBankWrBursts::5              7296                       # Per bank write bursts
system.mem_ctrls.perBankWrBursts::6              7296                       # Per bank write bursts
system.mem_ctrls.perBankWrBursts::7              7296                       # Per bank write bursts
system.mem_ctrls.perBankWrBursts::8              7296                       # Per bank write bursts
system.mem_ctrls.perBankWrBursts::9              7296                       # Per bank write bursts
system.mem_ctrls.perBankWrBursts::10             7296                       # Per bank write bursts
system.mem_ctrls.perBankWrBursts::11             7296                       # Per bank write bursts
system.mem_ctrls.perBankWrBursts::12             7296                       # Per bank write bursts
system.mem_ctrls.perBankWrBursts::13             7296                       # Per bank write bursts
system.mem_ctrls.perBankWrBursts::14             7296                       # Per bank write bursts
system.mem_ctrls.perBankWrBursts::15             7296                       # Per bank write bursts
system.mem_ctrls.avgRdQLen                       1.00                       # Average read queue length when enqueuing
system.mem_ctrls.avgWrQLen                      20.70                       # Average write queue length when enqueuing
system.mem_ctrls.totQLat                   1335274500                       # Total ticks spent queuing
system.mem_ctrls.totBusLat                  751030000                       # Total ticks spent in databus transfers
system.mem_ctrls.totMemAccLat              4151637000                       # Total ticks spent from burst creation until serviced by the DRAM
system.mem_ctrls.avgQLat                      8889.62                       # Average queueing delay per DRAM burst
system.mem_ctrls.avgBusLat                    5000.00                       # Average bus latency per DRAM burst
system.mem_ctrls.avgMemAccLat                27639.62                       # Average memory access latency per DRAM burst
system.mem_ctrls.numRdRetry                         0                       # Number of times read queue was full causing retry
system.mem_ctrls.numWrRetry                         0                       # Number of times write queue was full causing retry
system.mem_ctrls.readRowHits                   138167                       # Number of row buffer hits during reads
system.mem_ctrls.writeRowHits                  108329                       # Number of row buffer hits during writes
system.mem_ctrls.readRowHitRate                 91.99                       # Row buffer hit rate for reads
system.mem_ctrls.writeRowHitRate                92.84                       # Row buffer hit rate for writes
system.mem_ctrls.readPktSize::0                     0                       # Read request sizes (log2)
system.mem_ctrls.readPktSize::1                     0                       # Read request sizes (log2)
system.mem_ctrls.readPktSize::2                     0                       # Read request sizes (log2)
system.mem_ctrls.readPktSize::3                     0                       # Read request sizes (log2)
system.mem_ctrls.readPktSize::4                     0                       # Read request sizes (log2)
system.mem_ctrls.readPktSize::5                     0                       # Read request sizes (log2)
system.mem_ctrls.readPktSize::6                150206                       # Read request sizes (log2)
system.mem_ctrls.writePktSize::0                    0                       # Write request sizes (log2)
system.mem_ctrls.writePktSize::1                    0                       # Write request sizes (log2)
system.mem_ctrls.writePktSize::2                    0                       # Write request sizes (log2)
system.mem_ctrls.writePktSize::3                    0                       # Write request sizes (log2)
system.mem_ctrls.writePktSize::4                    0                       # Write request sizes (log2)
system.mem_ctrls.writePktSize::5                    0                       # Write request sizes (log2)
system.mem_ctrls.writePktSize::6               116683                       # Write request sizes (log2)
system.mem_ctrls.rdQLenPdf::0                  150060                       # What read queue length does an incoming req see
system.mem_ctrls.rdQLenPdf::1                     135                       # What read queue length does an incoming req see
system.mem_ctrls.rdQLenPdf::2                      11                       # What read queue length does an incoming req see
system.mem_ctrls.rdQLenPdf::3                       0                       # What read queue length does an incoming req see
system.mem_ctrls.rdQLenPdf::4                       0                       # What read queue length does an incoming req see
system.mem_ctrls.rdQLenPdf::5                       0                       # What read queue length does an incoming req see
system.mem_ctrls.rdQLenPdf::6                       0                       # What read queue length does an incoming req see
system.mem_ctrls.rdQLenPdf::7                       0                       # What read queue length does an incoming req see
system.mem_ctrls.rdQLenPdf::8                       0                       # What read queue length does an incoming req see
system.mem_ctrls.rdQLenPdf::9                       0                       # What read queue length does an incoming req see
system.mem_ctrls.rdQLenPdf::10                      0                       # What read queue length does an incoming req see
system.mem_ctrls.rdQLenPdf::11                      0                       # What read queue length does an incoming req see
system.mem_ctrls.rdQLenPdf::12                      0                       # What read queue length does an incoming req see
system.mem_ctrls.rdQLenPdf::13                      0                       # What read queue length does an incoming req see
system.mem_ctrls.rdQLenPdf::14                      0                       # What read queue length does an incoming req see
system.mem_ctrls.rdQLenPdf::15                      0                       # What read queue length does an incoming req see
system.mem_ctrls.rdQLenPdf::16                      0                       # What read queue length does an incoming req see
system.mem_ctrls.rdQLenPdf::17                      0                       # What read queue length does an incoming req see
system.mem_ctrls.rdQLenPdf::18                      0                       # What read queue length does an incoming req see
system.mem_ctrls.rdQLenPdf::19                      0                       # What read queue length does an incoming req see
system.mem_ctrls.rdQLenPdf::20                      0                       # What read queue length does an incoming req see
system.mem_ctrls.rdQLenPdf::21                      0                       # What read queue length does an incoming req see
system.mem_ctrls.rdQLenPdf::22                      0                       # What read queue length does an incoming req see
system.mem_ctrls.rdQLenPdf::23                      0                       # What read queue length does an incoming req see
system.mem_ctrls.rdQLenPdf::24                      0                       # What read queue length does an incoming req see
system.mem_ctrls.rdQLenPdf::25                      0                       # What read queue length does an incoming req see
system.mem_ctrls.rdQLenPdf::26                      0                       # What read queue length does an incoming req see
system.mem_ctrls.rdQLenPdf::27                      0                       # What read queue length does an incoming req see
system.mem_ctrls.rdQLenPdf::28                      0                       # What read queue length does an incoming req see
system.mem_ctrls.rdQLenPdf::29                      0                       # What read queue length does an incoming req see
system.mem_ctrls.rdQLenPdf::30                      0                       # What read queue length does an incoming req see
system.mem_ctrls.rdQLenPdf::31                      0                       # What read queue length does an incoming req see
system.mem_ctrls.wrQLenPdf::0                       1                       # What write queue length does an incoming req see
system.mem_ctrls.wrQLenPdf::1                       1                       # What write queue length does an incoming req see
system.mem_ctrls.wrQLenPdf::2                       1                       # What write queue length does an incoming req see
system.mem_ctrls.wrQLenPdf::3                       1                       # What write queue length does an incoming req see
system.mem_ctrls.wrQLenPdf::4                       1                       # What write queue length does an incoming req see
system.mem_ctrls.wrQLenPdf::5                       1                       # What write queue length does an incoming req see
system.mem_ctrls.wrQLenPdf::6                       1                       # What write queue length does an incoming req see
system.mem_ctrls.wrQLenPdf::7                       1                       # What write queue length does an incoming req see
system.mem_ctrls.wrQLenPdf::8                       1                       # What write queue length does an incoming req see
system.mem_ctrls.wrQLenPdf::9                       1                       # What write queue length does an incoming req see
system.mem_ctrls.wrQLenPdf::10                      1                       # What write queue length does an incoming req see
system.mem_ctrls.wrQLenPdf::11                      1                       # What write queue length does an incoming req see
system.mem_ctrls.wrQLenPdf::12                      1                       # What write queue length does an incoming req see
system.mem_ctrls.wrQLenPdf::13                      1                       # What write queue length does an incoming req see
system.mem_ctrls.wrQLenPdf::14                      1                       # What write queue length does an incoming req see
system.mem_ctrls.wrQLenPdf::15                      2                       # What write queue length does an incoming req see
system.mem_ctrls.wrQLenPdf::16                     26                       # What write queue length does an incoming req see
system.mem_ctrls.wrQLenPdf::17                   7289                       # What write queue length does an incoming req see
system.mem_ctrls.wrQLenPdf::18                   7289                       # What write queue length does an incoming req see
system.mem_ctrls.wrQLenPdf::19                   7289                       # What write queue length does an incoming req see
system.mem_ctrls.wrQLenPdf::20                   7289                       # What write queue length does an incoming req see
system.mem_ctrls.wrQLenPdf::21                   7289                       # What write queue length does an incoming req see
system.mem_ctrls.wrQLenPdf::22                   7289                       # What write queue length does an incoming req see
system.mem_ctrls.wrQLenPdf::23                   7289                       # What write queue length does an incoming req see
system.mem_ctrls.wrQLenPdf::24                   7290                       # What write queue length does an incoming req see
system.mem_ctrls.wrQLenPdf::25                   7311                       # What write queue length does an incoming req see
system.mem_ctrls.wrQLenPdf::26                   7288                       # What write queue length does an incoming req see
system.mem_ctrls.wrQLenPdf::27                   7288                       # What write queue length does an incoming req see
system.mem_ctrls.wrQLenPdf::28                   7288                       # What write queue length does an incoming req see
system.mem_ctrls.wrQLenPdf::29                   7288                       # What write queue length does an incoming req see
system.mem_ctrls.wrQLenPdf::30                   7288                       # What write queue length does an incoming req see
system.mem_ctrls.wrQLenPdf::31                   7288                       # What write queue length does an incoming req see
system.mem_ctrls.wrQLenPdf::32                   7288                       # What write queue length does an incoming req see
system.mem_ctrls.wrQLenPdf::33                      0                       # What write queue length does an incoming req see
system.mem_ctrls.wrQLenPdf::34                      0                       # What write queue length does an incoming req see
system.mem_ctrls.wrQLenPdf::35                      0                       # What write queue length does an incoming req see
system.mem_ctrls.wrQLenPdf::36                      0                       # What write queue length does an incoming req see
system.mem_ctrls.wrQLenPdf::37                      0                       # What write queue length does an incoming req see
system.mem_ctrls.wrQLenPdf::38                      0                       # What write queue length does an incoming req see
system.mem_ctrls.wrQLenPdf::39                      0                       # What write queue length does an incoming req see
system.mem_ctrls.wrQLenPdf::40                      0                       # What write queue length does an incoming req see
system.mem_ctrls.wrQLenPdf::41                      0                       # What write queue length does an incoming req see
system.mem_ctrls.wrQLenPdf::42                      0                       # What write queue length does an incoming req see
system.mem_ctrls.wrQLenPdf::43                      0                       # What write queue length does an incoming req see
system.mem_ctrls.wrQLenPdf::44                      0                       # What write queue length does an incoming req see
system.mem_ctrls.wrQLenPdf::45                      0                       # What write queue length does an incoming req see
system.mem_ctrls.wrQLenPdf::46                      0                       # What write queue length does an incoming req see
system.mem_ctrls.wrQLenPdf::47                      0                       # What write queue length does an incoming req see
system.mem_ctrls.wrQLenPdf::48                      0                       # What write queue length does an incoming req see
system.mem_ctrls.wrQLenPdf::49                      0                       # What write queue length does an incoming req see
system.mem_ctrls.wrQLenPdf::50                      0                       # What write queue length does an incoming req see
system.mem_ctrls.wrQLenPdf::51                      0                       # What write queue length does an incoming req see
system.mem_ctrls.wrQLenPdf::52                      0                       # What write queue length does an incoming req see
system.mem_ctrls.wrQLenPdf::53                      0                       # What write queue length does an incoming req see
system.mem_ctrls.wrQLenPdf::54                      0                       # What write queue length does an incoming req see
system.mem_ctrls.wrQLenPdf::55                      0                       # What write queue length does an incoming req see
system.mem_ctrls.wrQLenPdf::56                      0                       # What write queue length does an incoming req see
system.mem_ctrls.wrQLenPdf::57                      0                       # What write queue length does an incoming req see
system.mem_ctrls.wrQLenPdf::58                      0                       # What write queue length does an incoming req see
system.mem_ctrls.wrQLenPdf::59                      0                       # What write queue length does an incoming req see
system.mem_ctrls.wrQLenPdf::60                      0                       # What write queue length does an incoming req see
system.mem_ctrls.wrQLenPdf::61                      0                       # What write queue length does an incoming req see
system.mem_ctrls.wrQLenPdf::62                      0                       # What write queue length does an incoming req see
system.mem_ctrls.wrQLenPdf::63                      0                       # What write queue length does an incoming req see
system.mem_ctrls.bytesPerActivate::samples        20367                       # Bytes accessed per row activation
system.mem_ctrls.bytesPerActivate::mean    838.551775                       # Bytes accessed per row activation
system.mem_ctrls.bytesPerActivate::gmean   719.348809                       # Bytes accessed per row activation
system.mem_ctrls.bytesPerActivate::stdev   308.033239                       # Bytes accessed per row activation
system.mem_ctrls.bytesPerActivate::0-127          821      4.03%      4.03% # Bytes accessed per row activation
system.mem_ctrls.bytesPerActivate::128-255          903      4.43%      8.46% # Bytes accessed per row activation
system.mem_ctrls.bytesPerActivate::256-383          860      4.22%     12.69% # Bytes accessed per row activation
system.mem_ctrls.bytesPerActivate::384-511         1083      5.32%     18.00% # Bytes accessed per row activation
system.mem_ctrls.bytesPerActivate::512-639          740      3.63%     21.64% # Bytes accessed per row activation
system.mem_ctrls.bytesPerActivate::640-767          867      4.26%     25.89% # Bytes accessed per row activation
system.mem_ctrls.bytesPerActivate::768-895          667      3.27%     29.17% # Bytes accessed per row activation
system.mem_ctrls.bytesPerActivate::896-1023         1119      5.49%     34.66% # Bytes accessed per row activation
system.mem_ctrls.bytesPerActivate::1024-1151        13307     65.34%    100.00% # Bytes accessed per row activation
system.mem_ctrls.bytesPerActivate::total        20367                       # Bytes accessed per row activation
system.mem_ctrls.rdPerTurnAround::samples         7288                       # Reads before turning the bus around for writes
system.mem_ctrls.rdPerTurnAround::mean      20.608946                       # Reads before turning the bus around for writes
system.mem_ctrls.rdPerTurnAround::gmean     16.043502                       # Reads before turning the bus around for writes
system.mem_ctrls.rdPerTurnAround::stdev    366.062367                       # Reads before turning the bus around for writes
system.mem_ctrls.rdPerTurnAround::0-1023         7286     99.97%     99.97% # Reads before turning the bus around for writes
system.mem_ctrls.rdPerTurnAround::2048-3071            1      0.01%     99.99% # Reads before turning the bus around for writes
system.mem_ctrls.rdPerTurnAround::30720-31743            1      0.01%    100.00% # Reads before turning the bus around for writes
system.mem_ctrls.rdPerTurnAround::total          7288                       # Reads before turning the bus around for writes
system.mem_ctrls.wrPerTurnAround::samples         7288                       # Writes before turning the bus around for reads
system.mem_ctrls.wrPerTurnAround::mean      16.006861                       # Writes before turning the bus around for reads
system.mem_ctrls.wrPerTurnAround::gmean     16.006459                       # Writes before turning the bus around for reads
system.mem_ctrls.wrPerTurnAround::stdev      0.118112                       # Writes before turning the bus around for reads
system.mem_ctrls.wrPerTurnAround::16             7263     99.66%     99.66% # Writes before turning the bus around for reads
system.mem_ctrls.wrPerTurnAround::17                1      0.01%     99.67% # Writes before turning the bus around for reads
[...]
system.cpu.icache.ReadReq_avg_miss_latency::.cpu.inst 61276.839566                       # average ReadReq miss latency
system.cpu.icache.ReadReq_avg_miss_latency::total 61276.839566                       # average ReadReq miss latency
system.cpu.icache.ReadReq_mshr_misses::.cpu.inst          829                       # number of ReadReq MSHR misses
system.cpu.icache.ReadReq_mshr_misses::total          829                       # number of ReadReq MSHR misses
system.cpu.icache.ReadReq_mshr_miss_latency::.cpu.inst     49969500                       # number of ReadReq MSHR miss cycles
system.cpu.icache.ReadReq_mshr_miss_latency::total     49969500                       # number of ReadReq MSHR miss cycles
system.cpu.icache.ReadReq_mshr_miss_rate::.cpu.inst     0.001055                       # mshr miss rate for ReadReq accesses
system.cpu.icache.ReadReq_mshr_miss_rate::total     0.001055                       # mshr miss rate for ReadReq accesses
system.cpu.icache.ReadReq_avg_mshr_miss_latency::.cpu.inst 60276.839566                       # average ReadReq mshr miss latency
system.cpu.icache.ReadReq_avg_mshr_miss_latency::total 60276.839566                       # average ReadReq mshr miss latency
system.cpu.icache.tags.pwrStateResidencyTicks::UNDEFINED  17176016500                       # Cumulative time (in ticks) in various power states
system.cpu.icache.tags.tagsinuse           321.609521                       # Cycle average of tags in use
system.cpu.icache.tags.total_refs              785444                       # Total number of references to valid blocks.
system.cpu.icache.tags.sampled_refs               829                       # Sample count of references to valid blocks.
system.cpu.icache.tags.avg_refs            947.459590                       # Average number of references to valid blocks.
system.cpu.icache.tags.warmup_cycle             87500                       # Cycle when the warmup percentage was hit.
system.cpu.icache.tags.occ_blocks::.cpu.inst   321.609521                       # Average occupied blocks per requestor
system.cpu.icache.tags.occ_percent::.cpu.inst     0.628144                       # Average percentage of cache occupancy
system.cpu.icache.tags.occ_percent::total     0.628144                       # Average percentage of cache occupancy
system.cpu.icache.tags.occ_task_id_blocks::1024          322                       # Occupied blocks per task id
system.cpu.icache.tags.age_task_id_blocks_1024::4          322                       # Occupied blocks per task id
system.cpu.icache.tags.occ_task_id_percent::1024     0.628906                       # Percentage of cache occupancy per task id
system.cpu.icache.tags.tag_accesses            786273                       # Number of tag accesses
system.cpu.icache.tags.data_accesses           786273                       # Number of data accesses
system.cpu.dtb.walker.pwrStateResidencyTicks::UNDEFINED  17176016500                       # Cumulative time (in ticks) in various power states
system.cpu.dtb.stage2_mmu.stage2_tlb.walker.pwrStateResidencyTicks::UNDEFINED  17176016500                       # Cumulative time (in ticks) in various power states
system.cpu.dcache.pwrStateResidencyTicks::UNDEFINED  17176016500                       # Cumulative time (in ticks) in various power states
system.cpu.dcache.demand_hits::.cpu.data      5804484                       # number of demand (read+write) hits
system.cpu.dcache.demand_hits::total          5804484                       # number of demand (read+write) hits
system.cpu.dcache.overall_hits::.cpu.data      5804512                       # number of overall hits
system.cpu.dcache.overall_hits::total         5804512                       # number of overall hits
system.cpu.dcache.demand_misses::.cpu.data       299033                       # number of demand (read+write) misses
system.cpu.dcache.demand_misses::total         299033                       # number of demand (read+write) misses
system.cpu.dcache.overall_misses::.cpu.data       299044                       # number of overall misses
system.cpu.dcache.overall_misses::total        299044                       # number of overall misses
system.cpu.dcache.demand_miss_latency::.cpu.data  23509633500                       # number of demand (read+write) miss cycles
system.cpu.dcache.demand_miss_latency::total  23509633500                       # number of demand (read+write) miss cycles
system.cpu.dcache.overall_miss_latency::.cpu.data  23509633500                       # number of overall miss cycles
system.cpu.dcache.overall_miss_latency::total  23509633500                       # number of overall miss cycles
system.cpu.dcache.demand_accesses::.cpu.data      6103517                       # number of demand (read+write) accesses
system.cpu.dcache.demand_accesses::total      6103517                       # number of demand (read+write) accesses
system.cpu.dcache.overall_accesses::.cpu.data      6103556                       # number of overall (read+write) accesses
system.cpu.dcache.overall_accesses::total      6103556                       # number of overall (read+write) accesses
system.cpu.dcache.demand_miss_rate::.cpu.data     0.048994                       # miss rate for demand accesses
system.cpu.dcache.demand_miss_rate::total     0.048994                       # miss rate for demand accesses
system.cpu.dcache.overall_miss_rate::.cpu.data     0.048995                       # miss rate for overall accesses
system.cpu.dcache.overall_miss_rate::total     0.048995                       # miss rate for overall accesses
system.cpu.dcache.demand_avg_miss_latency::.cpu.data 78618.859791                       # average overall miss latency
system.cpu.dcache.demand_avg_miss_latency::total 78618.859791                       # average overall miss latency
system.cpu.dcache.overall_avg_miss_latency::.cpu.data 78615.967884                       # average overall miss latency
system.cpu.dcache.overall_avg_miss_latency::total 78615.967884                       # average overall miss latency
system.cpu.dcache.blocked_cycles::no_mshrs            0                       # number of cycles access was blocked
system.cpu.dcache.blocked_cycles::no_targets            0                       # number of cycles access was blocked
system.cpu.dcache.blocked::no_mshrs                 0                       # number of cycles access was blocked
system.cpu.dcache.blocked::no_targets               0                       # number of cycles access was blocked
system.cpu.dcache.avg_blocked_cycles::no_mshrs          nan                       # average number of cycles each access was blocked
system.cpu.dcache.avg_blocked_cycles::no_targets          nan                       # average number of cycles each access was blocked
system.cpu.dcache.writebacks::.writebacks       148430                       # number of writebacks
system.cpu.dcache.writebacks::total            148430                       # number of writebacks
system.cpu.dcache.demand_mshr_hits::.cpu.data       149426                       # number of demand (read+write) MSHR hits
system.cpu.dcache.demand_mshr_hits::total       149426                       # number of demand (read+write) MSHR hits
system.cpu.dcache.overall_mshr_hits::.cpu.data       149426                       # number of overall MSHR hits
system.cpu.dcache.overall_mshr_hits::total       149426                       # number of overall MSHR hits
system.cpu.dcache.demand_mshr_misses::.cpu.data       149607                       # number of demand (read+write) MSHR misses
system.cpu.dcache.demand_mshr_misses::total       149607                       # number of demand (read+write) MSHR misses
system.cpu.dcache.overall_mshr_misses::.cpu.data       149615                       # number of overall MSHR misses
system.cpu.dcache.overall_mshr_misses::total       149615                       # number of overall MSHR misses
system.cpu.dcache.demand_mshr_miss_latency::.cpu.data  12015710500                       # number of demand (read+write) MSHR miss cycles
system.cpu.dcache.demand_mshr_miss_latency::total  12015710500                       # number of demand (read+write) MSHR miss cycles
system.cpu.dcache.overall_mshr_miss_latency::.cpu.data  12016363500                       # number of overall MSHR miss cycles
system.cpu.dcache.overall_mshr_miss_latency::total  12016363500                       # number of overall MSHR miss cycles
system.cpu.dcache.demand_mshr_miss_rate::.cpu.data     0.024512                       # mshr miss rate for demand accesses
system.cpu.dcache.demand_mshr_miss_rate::total     0.024512                       # mshr miss rate for demand accesses
system.cpu.dcache.overall_mshr_miss_rate::.cpu.data     0.024513                       # mshr miss rate for overall accesses
system.cpu.dcache.overall_mshr_miss_rate::total     0.024513                       # mshr miss rate for overall accesses
system.cpu.dcache.demand_avg_mshr_miss_latency::.cpu.data 80315.162392                       # average overall mshr miss latency
system.cpu.dcache.demand_avg_mshr_miss_latency::total 80315.162392                       # average overall mshr miss latency
system.cpu.dcache.overall_avg_mshr_miss_latency::.cpu.data 80315.232430                       # average overall mshr miss latency
system.cpu.dcache.overall_avg_mshr_miss_latency::total 80315.232430                       # average overall mshr miss latency
system.cpu.dcache.replacements                 148591                       # number of replacements
system.cpu.dcache.ReadReq_hits::.cpu.data      4785476                       # number of ReadReq hits
system.cpu.dcache.ReadReq_hits::total         4785476                       # number of ReadReq hits
system.cpu.dcache.ReadReq_misses::.cpu.data          190                       # number of ReadReq misses
system.cpu.dcache.ReadReq_misses::total           190                       # number of ReadReq misses
system.cpu.dcache.ReadReq_miss_latency::.cpu.data     14258000                       # number of ReadReq miss cycles
system.cpu.dcache.ReadReq_miss_latency::total     14258000                       # number of ReadReq miss cycles
system.cpu.dcache.ReadReq_accesses::.cpu.data      4785666                       # number of ReadReq accesses(hits+misses)
system.cpu.dcache.ReadReq_accesses::total      4785666                       # number of ReadReq accesses(hits+misses)
system.cpu.dcache.ReadReq_miss_rate::.cpu.data     0.000040                       # miss rate for ReadReq accesses
system.cpu.dcache.ReadReq_miss_rate::total     0.000040                       # miss rate for ReadReq accesses
system.cpu.dcache.ReadReq_avg_miss_latency::.cpu.data 75042.105263                       # average ReadReq miss latency
system.cpu.dcache.ReadReq_avg_miss_latency::total 75042.105263                       # average ReadReq miss latency
system.cpu.dcache.ReadReq_mshr_hits::.cpu.data           19                       # number of ReadReq MSHR hits
system.cpu.dcache.ReadReq_mshr_hits::total           19                       # number of ReadReq MSHR hits
system.cpu.dcache.ReadReq_mshr_misses::.cpu.data          171                       # number of ReadReq MSHR misses
system.cpu.dcache.ReadReq_mshr_misses::total          171                       # number of ReadReq MSHR misses
system.cpu.dcache.ReadReq_mshr_miss_latency::.cpu.data     12863500                       # number of ReadReq MSHR miss cycles
system.cpu.dcache.ReadReq_mshr_miss_latency::total     12863500                       # number of ReadReq MSHR miss cycles
system.cpu.dcache.ReadReq_mshr_miss_rate::.cpu.data     0.000036                       # mshr miss rate for ReadReq accesses
system.cpu.dcache.ReadReq_mshr_miss_rate::total     0.000036                       # mshr miss rate for ReadReq accesses
system.cpu.dcache.ReadReq_avg_mshr_miss_latency::.cpu.data 75225.146199                       # average ReadReq mshr miss latency
system.cpu.dcache.ReadReq_avg_mshr_miss_latency::total 75225.146199                       # average ReadReq mshr miss latency
system.cpu.dcache.WriteReq_hits::.cpu.data      1019008                       # number of WriteReq hits
system.cpu.dcache.WriteReq_hits::total        1019008                       # number of WriteReq hits
system.cpu.dcache.WriteReq_misses::.cpu.data       298843                       # number of WriteReq misses
system.cpu.dcache.WriteReq_misses::total       298843                       # number of WriteReq misses
system.cpu.dcache.WriteReq_miss_latency::.cpu.data  23495375500                       # number of WriteReq miss cycles
system.cpu.dcache.WriteReq_miss_latency::total  23495375500                       # number of WriteReq miss cycles
system.cpu.dcache.WriteReq_accesses::.cpu.data      1317851                       # number of WriteReq accesses(hits+misses)
system.cpu.dcache.WriteReq_accesses::total      1317851                       # number of WriteReq accesses(hits+misses)
system.cpu.dcache.WriteReq_miss_rate::.cpu.data     0.226765                       # miss rate for WriteReq accesses
system.cpu.dcache.WriteReq_miss_rate::total     0.226765                       # miss rate for WriteReq accesses
system.cpu.dcache.WriteReq_avg_miss_latency::.cpu.data 78621.133840                       # average WriteReq miss latency
system.cpu.dcache.WriteReq_avg_miss_latency::total 78621.133840                       # average WriteReq miss latency
system.cpu.dcache.WriteReq_mshr_hits::.cpu.data       149407                       # number of WriteReq MSHR hits
system.cpu.dcache.WriteReq_mshr_hits::total       149407                       # number of WriteReq MSHR hits
system.cpu.dcache.WriteReq_mshr_misses::.cpu.data       149436                       # number of WriteReq MSHR misses
system.cpu.dcache.WriteReq_mshr_misses::total       149436                       # number of WriteReq MSHR misses
system.cpu.dcache.WriteReq_mshr_miss_latency::.cpu.data  12002847000                       # number of WriteReq MSHR miss cycles
system.cpu.dcache.WriteReq_mshr_miss_latency::total  12002847000                       # number of WriteReq MSHR miss cycles
system.cpu.dcache.WriteReq_mshr_miss_rate::.cpu.data     0.113394                       # mshr miss rate for WriteReq accesses
system.cpu.dcache.WriteReq_mshr_miss_rate::total     0.113394                       # mshr miss rate for WriteReq accesses
system.cpu.dcache.WriteReq_avg_mshr_miss_latency::.cpu.data 80320.986911                       # average WriteReq mshr miss latency
system.cpu.dcache.WriteReq_avg_mshr_miss_latency::total 80320.986911                       # average WriteReq mshr miss latency
system.cpu.dcache.SoftPFReq_hits::.cpu.data           28                       # number of SoftPFReq hits
system.cpu.dcache.SoftPFReq_hits::total            28                       # number of SoftPFReq hits
system.cpu.dcache.SoftPFReq_misses::.cpu.data           11                       # number of SoftPFReq misses
system.cpu.dcache.SoftPFReq_misses::total           11                       # number of SoftPFReq misses
system.cpu.dcache.SoftPFReq_accesses::.cpu.data           39                       # number of SoftPFReq accesses(hits+misses)
system.cpu.dcache.SoftPFReq_accesses::total           39                       # number of SoftPFReq accesses(hits+misses)
system.cpu.dcache.SoftPFReq_miss_rate::.cpu.data     0.282051                       # miss rate for SoftPFReq accesses
system.cpu.dcache.SoftPFReq_miss_rate::total     0.282051                       # miss rate for SoftPFReq accesses
system.cpu.dcache.SoftPFReq_mshr_misses::.cpu.data            8                       # number of SoftPFReq MSHR misses
system.cpu.dcache.SoftPFReq_mshr_misses::total            8                       # number of SoftPFReq MSHR misses
system.cpu.dcache.SoftPFReq_mshr_miss_latency::.cpu.data       653000                       # number of SoftPFReq MSHR miss cycles
system.cpu.dcache.SoftPFReq_mshr_miss_latency::total       653000                       # number of SoftPFReq MSHR miss cycles
system.cpu.dcache.SoftPFReq_mshr_miss_rate::.cpu.data     0.205128                       # mshr miss rate for SoftPFReq accesses
system.cpu.dcache.SoftPFReq_mshr_miss_rate::total     0.205128                       # mshr miss rate for SoftPFReq accesses
system.cpu.dcache.SoftPFReq_avg_mshr_miss_latency::.cpu.data        81625                       # average SoftPFReq mshr miss latency
system.cpu.dcache.SoftPFReq_avg_mshr_miss_latency::total        81625                       # average SoftPFReq mshr miss latency
system.cpu.dcache.LoadLockedReq_hits::.cpu.data           14                       # number of LoadLockedReq hits
system.cpu.dcache.LoadLockedReq_hits::total           14                       # number of LoadLockedReq hits
system.cpu.dcache.LoadLockedReq_accesses::.cpu.data           14                       # number of LoadLockedReq accesses(hits+misses)
system.cpu.dcache.LoadLockedReq_accesses::total           14                       # number of LoadLockedReq accesses(hits+misses)
system.cpu.dcache.StoreCondReq_hits::.cpu.data           14                       # number of StoreCondReq hits
system.cpu.dcache.StoreCondReq_hits::total           14                       # number of StoreCondReq hits
system.cpu.dcache.StoreCondReq_accesses::.cpu.data           14                       # number of StoreCondReq accesses(hits+misses)
system.cpu.dcache.StoreCondReq_accesses::total           14                       # number of StoreCondReq accesses(hits+misses)
system.cpu.dcache.tags.pwrStateResidencyTicks::UNDEFINED  17176016500                       # Cumulative time (in ticks) in various power states
system.cpu.dcache.tags.tagsinuse          1018.101705                       # Cycle average of tags in use
system.cpu.dcache.tags.total_refs             5954155                       # Total number of references to valid blocks.
system.cpu.dcache.tags.sampled_refs            149615                       # Sample count of references to valid blocks.
system.cpu.dcache.tags.avg_refs             39.796511                       # Average number of references to valid blocks.
system.cpu.dcache.tags.warmup_cycle            176500                       # Cycle when the warmup percentage was hit.
system.cpu.dcache.tags.occ_blocks::.cpu.data  1018.101705                       # Average occupied blocks per requestor
system.cpu.dcache.tags.occ_percent::.cpu.data     0.994240                       # Average percentage of cache occupancy
system.cpu.dcache.tags.occ_percent::total     0.994240                       # Average percentage of cache occupancy
system.cpu.dcache.tags.occ_task_id_blocks::1024         1024                       # Occupied blocks per task id
system.cpu.dcache.tags.age_task_id_blocks_1024::0           88                       # Occupied blocks per task id
system.cpu.dcache.tags.age_task_id_blocks_1024::1          775                       # Occupied blocks per task id
system.cpu.dcache.tags.age_task_id_blocks_1024::2          158                       # Occupied blocks per task id
system.cpu.dcache.tags.age_task_id_blocks_1024::4            3                       # Occupied blocks per task id
system.cpu.dcache.tags.occ_task_id_percent::1024            1                       # Percentage of cache occupancy per task id
system.cpu.dcache.tags.tag_accesses          12356783                       # Number of tag accesses
system.cpu.dcache.tags.data_accesses         12356783                       # Number of data accesses
system.cpu.itb.walker.pwrStateResidencyTicks::UNDEFINED  17176016500                       # Cumulative time (in ticks) in various power states
system.cpu.itb.stage2_mmu.stage2_tlb.walker.pwrStateResidencyTicks::UNDEFINED  17176016500                       # Cumulative time (in ticks) in various power states

---------- End Simulation Statistics   ----------
