
---------- Begin Simulation Statistics ----------
final_tick                                17153679500                       # Number of ticks from beginning of simulation (restored from checkpoints and never reset)
host_inst_rate                                  60601                       # Simulator instruction rate (inst/s)
host_mem_usage                                 686728                       # Number of bytes of host memory used
host_op_rate                                    60626                       # Simulator op (including micro ops) rate (op/s)
host_seconds                                   165.01                       # Real time elapsed on the host
host_tick_rate                              103953755                       # Simulator tick rate (ticks/s)
sim_freq                                 1000000000000                       # Frequency of simulated ticks
sim_insts                                    10000000                       # Number of instructions simulated
sim_ops                                      10003984                       # Number of ops (including micro ops) simulated
sim_seconds                                  0.017154                       # Number of seconds simulated
sim_ticks                                 17153679500                       # Number of ticks simulated
system.cpu.branchPred.BTBCorrect                    0                       # Number of correct BTB predictions (this stat may not work properly.
system.cpu.branchPred.BTBHitPct             95.863648                       # BTB Hit Percentage
system.cpu.branchPred.BTBHits                   61532                       # Number of BTB hits
system.cpu.branchPred.BTBLookups                64187                       # Number of BTB lookups
system.cpu.branchPred.RASInCorrect                 16                       # Number of incorrect RAS predictions.
system.cpu.branchPred.condIncorrect               888                       # Number of conditional branches incorrect
system.cpu.branchPred.condPredicted             64644                       # Number of conditional branches predicted
system.cpu.branchPred.indirectHits                138                       # Number of indirect target hits.
system.cpu.branchPred.indirectLookups             282                       # Number of indirect predictor lookups.
system.cpu.branchPred.indirectMisses              144                       # Number of indirect misses.
system.cpu.branchPred.lookups                   66545                       # Number of BP lookups
system.cpu.branchPred.usedRAS                     608                       # Number of times the RAS was used to get a target.
system.cpu.branchPredindirectMispredicted          118                       # Number of mispredicted indirect branches.
system.cpu.committedInsts                    10000000                       # Number of instructions committed
system.cpu.committedOps                      10003984                       # Number of ops (including micro ops) committed
system.cpu.cpi                               3.430736                       # CPI: cycles per instruction
system.cpu.discardedOps                          2432                       # Number of ops (including micro ops) which were discarded before commit
system.cpu.dtb.accesses                             0                       # DTB accesses
system.cpu.dtb.align_faults                         0                       # Number of TLB faults due to alignment restrictions
system.cpu.dtb.domain_faults                        0                       # Number of TLB faults due to domain restrictions
system.cpu.dtb.flush_entries                        0                       # Number of entries that have been flushed from TLB
system.cpu.dtb.flush_tlb                            0                       # Number of times complete TLB was flushed
system.cpu.dtb.flush_tlb_asid                       0                       # Number of times TLB was flushed by ASID
system.cpu.dtb.flush_tlb_mva                        0                       # Number of times TLB was flushed by MVA
system.cpu.dtb.flush_tlb_mva_asid                   0                       # Number of times TLB was flushed by MVA & ASID
system.cpu.dtb.hits                                 0                       # DTB hits
system.cpu.dtb.inst_accesses                        0                       # ITB inst accesses
system.cpu.dtb.inst_hits                            0                       # ITB inst hits
system.cpu.dtb.inst_misses                          0                       # ITB inst misses
system.cpu.dtb.misses                               0                       # DTB misses
system.cpu.dtb.perms_faults                         0                       # Number of TLB faults due to permissions restrictions
system.cpu.dtb.prefetch_faults                      0                       # Number of TLB faults due to prefetch
system.cpu.dtb.read_accesses                        0                       # DTB read accesses
system.cpu.dtb.read_hits                            0                       # DTB read hits
system.cpu.dtb.read_misses                          0                       # DTB read misses
system.cpu.dtb.stage2_mmu.stage2_tlb.accesses            0                       # DTB accesses
system.cpu.dtb.stage2_mmu.stage2_tlb.align_faults            0                       # Number of TLB faults due to alignment restrictions
system.cpu.dtb.stage2_mmu.stage2_tlb.domain_faults            0                       # Number of TLB faults due to domain restrictions
system.cpu.dtb.stage2_mmu.stage2_tlb.flush_entries            0                       # Number of entries that have been flushed from TLB
system.cpu.dtb.stage2_mmu.stage2_tlb.flush_tlb            0                       # Number of times complete TLB was flushed
system.cpu.dtb.stage2_mmu.stage2_tlb.flush_tlb_asid            0                       # Number of times TLB was flushed by ASID
system.cpu.dtb.stage2_mmu.stage2_tlb.flush_tlb_mva            0                       # Number of times TLB was flushed by MVA
system.cpu.dtb.stage2_mmu.stage2_tlb.flush_tlb_mva_asid            0                       # Number of times TLB was flushed by MVA & ASID
system.cpu.dtb.stage2_mmu.stage2_tlb.hits            0                       # DTB hits
system.cpu.dtb.stage2_mmu.stage2_tlb.inst_accesses            0                       # ITB inst accesses
system.cpu.dtb.stage2_mmu.stage2_tlb.inst_hits            0                       # ITB inst hits
system.cpu.dtb.stage2_mmu.stage2_tlb.inst_misses            0                       # ITB inst misses
system.cpu.dtb.stage2_mmu.stage2_tlb.misses            0                       # DTB misses
system.cpu.dtb.stage2_mmu.stage2_tlb.perms_faults            0                       # Number of TLB faults due to permissions restrictions
system.cpu.dtb.stage2_mmu.stage2_tlb.prefetch_faults            0                       # Number of TLB faults due to prefetch
system.cpu.dtb.stage2_mmu.stage2_tlb.read_accesses            0                       # DTB read accesses
system.cpu.dtb.stage2_mmu.stage2_tlb.read_hits            0                       # DTB read hits
system.cpu.dtb.stage2_mmu.stage2_tlb.read_misses            0                       # DTB read misses
system.cpu.dtb.stage2_mmu.stage2_tlb.walker.walkRequestOrigin_Requested::Data            0                       # Table walker requests started/completed, data/inst
system.cpu.dtb.stage2_mmu.stage2_tlb.walker.walkRequestOrigin_Requested::Inst            0                       # Table walker requests started/completed, data/inst
system.cpu.dtb.stage2_mmu.stage2_tlb.walker.walkRequestOrigin_Requested::total            0                       # Table walker requests started/completed, data/inst
system.cpu.dtb.stage2_mmu.stage2_tlb.walker.walkRequestOrigin_Completed::Data            0                       # Table walker requests started/completed, data/inst
system.cpu.dtb.stage2_mmu.stage2_tlb.walker.walkRequestOrigin_Completed::Inst            0                       # Table walker requests started/completed, data/inst
system.cpu.dtb.stage2_mmu.stage2_tlb.walker.walkRequestOrigin_Completed::total            0                       # Table walker requests started/completed, data/inst
system.cpu.dtb.stage2_mmu.stage2_tlb.walker.walkRequestOrigin::total            0                       # Table walker requests started/completed, data/inst
system.cpu.dtb.stage2_mmu.stage2_tlb.walker.walks            0                       # Table walker walks requested
system.cpu.dtb.stage2_mmu.stage2_tlb.write_accesses            0                       # DTB write accesses
system.cpu.dtb.stage2_mmu.stage2_tlb.write_hits            0                       # DTB write hits
system.cpu.dtb.stage2_mmu.stage2_tlb.write_misses            0                       # DTB write misses
system.cpu.dtb.walker.walkRequestOrigin_Requested::Data            0                       # Table walker requests started/completed, data/inst
system.cpu.dtb.walker.walkRequestOrigin_Requested::Inst            0                       # Table walker requests started/completed, data/inst
system.cpu.dtb.walker.walkRequestOrigin_Requested::total            0                       # Table walker requests started/completed, data/inst
system.cpu.dtb.walker.walkRequestOrigin_Completed::Data            0                       # Table walker requests started/completed, data/inst
system.cpu.dtb.walker.walkRequestOrigin_Completed::Inst            0                       # Table walker requests started/completed, data/inst
system.cpu.dtb.walker.walkRequestOrigin_Completed::total            0                       # Table walker requests started/completed, data/inst
system.cpu.dtb.walker.walkRequestOrigin::total            0                       # Table walker requests started/completed, data/inst
system.cpu.dtb.walker.walks                         0                       # Table walker walks requested
system.cpu.dtb.write_accesses                       0                       # DTB write accesses
system.cpu.dtb.write_hits                           0                       # DTB write hits
system.cpu.dtb.write_misses                         0                       # DTB write misses
system.cpu.fetch2.amo_instructions                  0                       # Number of memory atomic instructions successfully decoded
system.cpu.fetch2.fp_instructions                   0                       # Number of floating point instructions successfully decoded
system.cpu.fetch2.int_instructions            3720322                       # Number of integer instructions successfully decoded
system.cpu.fetch2.load_instructions           4905528                       # Number of memory load instructions successfully decoded
system.cpu.fetch2.store_instructions          1316580                       # Number of memory store instructions successfully decoded
system.cpu.fetch2.vec_instructions                  0                       # Number of SIMD instructions successfully decoded
system.cpu.idleCycles                        23397007                       # Total number of cycles that the object has spent stopped
system.cpu.ipc                               0.291483                       # IPC: instructions per cycle
system.cpu.itb.accesses                             0                       # DTB accesses
system.cpu.itb.align_faults                         0                       # Number of TLB faults due to alignment restrictions
system.cpu.itb.domain_faults                        0                       # Number of TLB faults due to domain restrictions
system.cpu.itb.flush_entries                        0                       # Number of entries that have been flushed from TLB
system.cpu.itb.flush_tlb                            0                       # Number of times complete TLB was flushed
system.cpu.itb.flush_tlb_asid                       0                       # Number of times TLB was flushed by ASID
system.cpu.itb.flush_tlb_mva                        0                       # Number of times TLB was flushed by MVA
system.cpu.itb.flush_tlb_mva_asid                   0                       # Number of times TLB was flushed by MVA & ASID
system.cpu.itb.hits                                 0                       # DTB hits
system.cpu.itb.inst_accesses                        0                       # ITB inst accesses
system.cpu.itb.inst_hits                            0                       # ITB inst hits
system.cpu.itb.inst_misses                          0                       # ITB inst misses
system.cpu.itb.misses                               0                       # DTB misses
system.cpu.itb.perms_faults                         0                       # Number of TLB faults due to permissions restrictions
system.cpu.itb.prefetch_faults                      0                       # Number of TLB faults due to prefetch
system.cpu.itb.read_accesses                        0                       # DTB read accesses
system.cpu.itb.read_hits                            0                       # DTB read hits
system.cpu.itb.read_misses                          0                       # DTB read misses
system.cpu.itb.stage2_mmu.stage2_tlb.accesses            0                       # DTB accesses
system.cpu.itb.stage2_mmu.stage2_tlb.align_faults            0                       # Number of TLB faults due to alignment restrictions
system.cpu.itb.stage2_mmu.stage2_tlb.domain_faults            0                       # Number of TLB faults due to domain restrictions
system.cpu.itb.stage2_mmu.stage2_tlb.flush_entries            0                       # Number of entries that have been flushed from TLB
system.cpu.itb.stage2_mmu.stage2_tlb.flush_tlb            0                       # Number of times complete TLB was flushed
system.cpu.itb.stage2_mmu.stage2_tlb.flush_tlb_asid            0                       # Number of times TLB was flushed by ASID
system.cpu.itb.stage2_mmu.stage2_tlb.flush_tlb_mva            0                       # Number of times TLB was flushed by MVA
system.cpu.itb.stage2_mmu.stage2_tlb.flush_tlb_mva_asid            0                       # Number of times TLB was flushed by MVA & ASID
system.cpu.itb.stage2_mmu.stage2_tlb.hits            0                       # DTB hits
system.cpu.itb.stage2_mmu.stage2_tlb.inst_accesses            0                       # ITB inst accesses
system.cpu.itb.stage2_mmu.stage2_tlb.inst_hits            0                       # ITB inst hits
system.cpu.itb.stage2_mmu.stage2_tlb.inst_misses            0                       # ITB inst misses
system.cpu.itb.stage2_mmu.stage2_tlb.misses            0                       # DTB misses
system.cpu.itb.stage2_mmu.stage2_tlb.perms_faults            0                       # Number of TLB faults due to permissions restrictions
system.cpu.itb.stage2_mmu.stage2_tlb.prefetch_faults            0                       # Number of TLB faults due to prefetch
system.cpu.itb.stage2_mmu.stage2_tlb.read_accesses            0                       # DTB read accesses
system.cpu.itb.stage2_mmu.stage2_tlb.read_hits            0                       # DTB read hits
system.cpu.itb.stage2_mmu.stage2_tlb.read_misses            0                       # DTB read misses
system.cpu.itb.stage2_mmu.stage2_tlb.walker.walkRequestOrigin_Requested::Data            0                       # Table walker requests started/completed, data/inst
system.cpu.itb.stage2_mmu.stage2_tlb.walker.walkRequestOrigin_Requested::Inst            0                       # Table walker requests started/completed, data/inst
system.cpu.itb.stage2_mmu.stage2_tlb.walker.walkRequestOrigin_Requested::total            0                       # Table walker requests started/completed, data/inst
system.cpu.itb.stage2_mmu.stage2_tlb.walker.walkRequestOrigin_Completed::Data            0                       # Table walker requests started/completed, data/inst
system.cpu.itb.stage2_mmu.stage2_tlb.walker.walkRequestOrigin_Completed::Inst            0                       # Table walker requests started/completed, data/inst
system.cpu.itb.stage2_mmu.stage2_tlb.walker.walkRequestOrigin_Completed::total            0                       # Table walker requests started/completed, data/inst
system.cpu.itb.stage2_mmu.stage2_tlb.walker.walkRequestOrigin::total            0                       # Table walker requests started/completed, data/inst
system.cpu.itb.stage2_mmu.stage2_tlb.walker.walks            0                       # Table walker walks requested
system.cpu.itb.stage2_mmu.stage2_tlb.write_accesses            0                       # DTB write accesses
system.cpu.itb.stage2_mmu.stage2_tlb.write_hits            0                       # DTB write hits
system.cpu.itb.stage2_mmu.stage2_tlb.write_misses            0                       # DTB write misses
system.cpu.itb.walker.walkRequestOrigin_Requested::Data            0                       # Table walker requests started/completed, data/inst
system.cpu.itb.walker.walkRequestOrigin_Requested::Inst            0                       # Table walker requests started/completed, data/inst
system.cpu.itb.walker.walkRequestOrigin_Requested::total            0                       # Table walker requests started/completed, data/inst
system.cpu.itb.walker.walkRequestOrigin_Completed::Data            0                       # Table walker requests started/completed, data/inst
system.cpu.itb.walker.walkRequestOrigin_Completed::Inst            0                       # Table walker requests started/completed, data/inst
system.cpu.itb.walker.walkRequestOrigin_Completed::total            0                       # Table walker requests started/completed, data/inst
system.cpu.itb.walker.walkRequestOrigin::total            0                       # Table walker requests started/completed, data/inst
system.cpu.itb.walker.walks                         0                       # Table walker walks requested
system.cpu.itb.write_accesses                       0                       # DTB write accesses
system.cpu.itb.write_hits                           0                       # DTB write hits
system.cpu.itb.write_misses                         0                       # DTB write misses
system.cpu.numCycles                         34307359                       # number of cpu cycles simulated
system.cpu.numFetchSuspends                         0                       # Number of times Execute suspended instruction fetching
system.cpu.numWorkItemsCompleted                    0                       # number of work items this cpu completed
system.cpu.numWorkItemsStarted                      0                       # number of work items this cpu started
system.cpu.op_class_0::No_OpClass                   0      0.00%      0.00% # Class of committed instruction
system.cpu.op_class_0::IntAlu                 3781097     37.80%     37.80% # Class of committed instruction
system.cpu.op_class_0::IntMult                     33      0.00%     37.80% # Class of committed instruction
system.cpu.op_class_0::IntDiv                       0      0.00%     37.80% # Class of committed instruction
system.cpu.op_class_0::FloatAdd                     0      0.00%     37.80% # Class of committed instruction
system.cpu.op_class_0::FloatCmp                     0      0.00%     37.80% # Class of committed instruction
system.cpu.op_class_0::FloatCvt                     0      0.00%     37.80% # Class of committed instruction
system.cpu.op_class_0::FloatMult                    0      0.00%     37.80% # Class of committed instruction
system.cpu.op_class_0::FloatMultAcc                 0      0.00%     37.80% # Class of committed instruction
system.cpu.op_class_0::FloatDiv                     0      0.00%     37.80% # Class of committed instruction
system.cpu.op_class_0::FloatMisc                    0      0.00%     37.80% # Class of committed instruction
system.cpu.op_class_0::FloatSqrt                    0      0.00%     37.80% # Class of committed instruction
system.cpu.op_class_0::SimdAdd                      0      0.00%     37.80% # Class of committed instruction
system.cpu.op_class_0::SimdAddAcc                   0      0.00%     37.80% # Class of committed instruction
system.cpu.op_class_0::SimdAlu                      0      0.00%     37.80% # Class of committed instruction
system.cpu.op_class_0::SimdCmp                      0      0.00%     37.80% # Class of committed instruction
system.cpu.op_class_0::SimdCvt                      0      0.00%     37.80% # Class of committed instruction
system.cpu.op_class_0::SimdMisc                     0      0.00%     37.80% # Class of committed instruction
system.cpu.op_class_0::SimdMult                     0      0.00%     37.80% # Class of committed instruction
system.cpu.op_class_0::SimdMultAcc                  0      0.00%     37.80% # Class of committed instruction
system.cpu.op_class_0::SimdShift                    0      0.00%     37.80% # Class of committed instruction
system.cpu.op_class_0::SimdShiftAcc                 0      0.00%     37.80% # Class of committed instruction
system.cpu.op_class_0::SimdDiv                      0      0.00%     37.80% # Class of committed instruction
system.cpu.op_class_0::SimdSqrt                     0      0.00%     37.80% # Class of committed instruction
system.cpu.op_class_0::SimdFloatAdd                 0      0.00%     37.80% # Class of committed instruction
system.cpu.op_class_0::SimdFloatAlu                 0      0.00%     37.80% # Class of committed instruction
system.cpu.op_class_0::SimdFloatCmp                 2      0.00%     37.80% # Class of committed instruction
system.cpu.op_class_0::SimdFloatCvt                 0      0.00%     37.80% # Class of committed instruction
system.cpu.op_class_0::SimdFloatDiv                 0      0.00%     37.80% # Class of committed instruction
system.cpu.op_class_0::SimdFloatMisc               23      0.00%     37.80% # Class of committed instruction
system.cpu.op_class_0::SimdFloatMult                0      0.00%     37.80% # Class of committed instruction
system.cpu.op_class_0::SimdFloatMultAcc             0      0.00%     37.80% # Class of committed instruction
system.cpu.op_class_0::SimdFloatSqrt                0      0.00%     37.80% # Class of committed instruction
system.cpu.op_class_0::SimdReduceAdd                0      0.00%     37.80% # Class of committed instruction
system.cpu.op_class_0::SimdReduceAlu                0      0.00%     37.80% # Class of committed instruction
system.cpu.op_class_0::SimdReduceCmp                0      0.00%     37.80% # Class of committed instruction
system.cpu.op_class_0::SimdFloatReduceAdd            0      0.00%     37.80% # Class of committed instruction
system.cpu.op_class_0::SimdFloatReduceCmp            0      0.00%     37.80% # Class of committed instruction
system.cpu.op_class_0::SimdAes                      0      0.00%     37.80% # Class of committed instruction
system.cpu.op_class_0::SimdAesMix                   0      0.00%     37.80% # Class of committed instruction
system.cpu.op_class_0::SimdSha1Hash                 0      0.00%     37.80% # Class of committed instruction
system.cpu.op_class_0::SimdSha1Hash2                0      0.00%     37.80% # Class of committed instruction
system.cpu.op_class_0::SimdSha256Hash               0      0.00%     37.80% # Class of committed instruction
system.cpu.op_class_0::SimdSha256Hash2              0      0.00%     37.80% # Class of committed instruction
system.cpu.op_class_0::SimdShaSigma2                0      0.00%     37.80% # Class of committed instruction
system.cpu.op_class_0::SimdShaSigma3                0      0.00%     37.80% # Class of committed instruction
system.cpu.op_class_0::SimdPredAlu                  0      0.00%     37.80% # Class of committed instruction
system.cpu.op_class_0::MemRead                4904845     49.03%     86.83% # Class of committed instruction
system.cpu.op_class_0::MemWrite               1317984     13.17%    100.00% # Class of committed instruction
system.cpu.op_class_0::FloatMemRead                 0      0.00%    100.00% # Class of committed instruction
system.cpu.op_class_0::FloatMemWrite                0      0.00%    100.00% # Class of committed instruction
system.cpu.op_class_0::IprAccess                    0      0.00%    100.00% # Class of committed instruction
system.cpu.op_class_0::InstPrefetch                 0      0.00%    100.00% # Class of committed instruction
system.cpu.op_class_0::total                 10003984                       # Class of committed instruction
system.cpu.tickCycles                        10910352                       # Number of cycles that the object actually ticked
system.cpu.workload.numSyscalls                    18                       # Number of system calls
system.membus.snoop_filter.hit_multi_requests            0                       # Number of requests hitting in the snoop filter with multiple (>1) holders of the requested data.
system.membus.snoop_filter.hit_multi_snoops            0                       # Number of snoops hitting in the snoop filter with multiple (>1) holders of the requested data.
system.membus.snoop_filter.hit_single_requests       117017                       # Number of requests hitting in the snoop filter with a single holder of the requested data.
system.membus.snoop_filter.hit_single_snoops            0                       # Number of snoops hitting in the snoop filter with a single holder of the requested data.
system.membus.snoop_filter.tot_requests        267227                       # Total number of requests made to the snoop filter.
system.membus.snoop_filter.tot_snoops               0                       # Total number of snoops made to the snoop filter.
system.tol2bus.snoop_filter.hit_multi_requests           63                       # Number of requests hitting in the snoop filter with multiple (>1) holders of the requested data.
system.tol2bus.snoop_filter.hit_multi_snoops            1                       # Number of snoops hitting in the snoop filter with multiple (>1) holders of the requested data.
system.tol2bus.snoop_filter.hit_single_requests       148881                       # Number of requests hitting in the snoop filter with a single holder of the requested data.
system.tol2bus.snoop_filter.hit_single_snoops          424                       # Number of snoops hitting in the snoop filter with a single holder of the requested data.
system.tol2bus.snoop_filter.tot_requests       299207                       # Total number of requests made to the snoop filter.
system.tol2bus.snoop_filter.tot_snoops            425                       # Total number of snoops made to the snoop filter.
system.membus.pwrStateResidencyTicks::UNDEFINED  17153679500                       # Cumulative time (in ticks) in various power states
system.membus.trans_dist::ReadResp                774                       # Transaction distribution
system.membus.trans_dist::WritebackDirty       116683                       # Transaction distribution
system.membus.trans_dist::CleanEvict              334                       # Transaction distribution
system.membus.trans_dist::ReadExReq            149436                       # Transaction distribution
system.membus.trans_dist::ReadExResp           149436                       # Transaction distribution
system.membus.trans_dist::ReadSharedReq           774                       # Transaction distribution
system.membus.pkt_count_system.l2.mem_side::system.mem_ctrls.port       417437                       # Packet count per connected master and slave (bytes)
system.membus.pkt_count::total                 417437                       # Packet count per connected master and slave (bytes)
system.membus.pkt_size_system.l2.mem_side::system.mem_ctrls.port     17081152                       # Cumulative packet size per connected master and slave (bytes)
system.membus.pkt_size::total                17081152                       # Cumulative packet size per connected master and slave (bytes)
system.membus.snoops                                0                       # Total snoops (count)
system.membus.snoopTraffic                          0                       # Total snoop traffic (bytes)
system.membus.snoop_fanout::samples            150210                       # Request fanout histogram
system.membus.snoop_fanout::mean                    0                       # Request fanout histogram
system.membus.snoop_fanout::stdev                   0                       # Request fanout histogram
system.membus.snoop_fanout::underflows              0      0.00%      0.00% # Request fanout histogram
system.membus.snoop_fanout::0                  150210    100.00%    100.00% # Request fanout histogram
system.membus.snoop_fanout::1                       0      0.00%    100.00% # Request fanout histogram
system.membus.snoop_fanout::overflows               0      0.00%    100.00% # Request fanout histogram
system.membus.snoop_fanout::min_value               0                       # Request fanout histogram
system.membus.snoop_fanout::max_value               0                       # Request fanout histogram
system.membus.snoop_fanout::total              150210                       # Request fanout histogram
system.membus.respLayer1.occupancy          791458500                       # Layer occupancy (ticks)
system.membus.respLayer1.utilization              4.6                       # Layer utilization (%)
system.membus.reqLayer0.occupancy           793826500                       # Layer occupancy (ticks)
system.membus.reqLayer0.utilization               4.6                       # Layer utilization (%)
system.tol2bus.pwrStateResidencyTicks::UNDEFINED  17153679500                       # Cumulative time (in ticks) in various power states
system.tol2bus.trans_dist::ReadResp               891                       # Transaction distribution
system.tol2bus.trans_dist::WritebackDirty       265113                       # Transaction distribution
system.tol2bus.trans_dist::WritebackClean          288                       # Transaction distribution
system.tol2bus.trans_dist::CleanEvict             921                       # Transaction distribution
system.tol2bus.trans_dist::ReadExReq           149436                       # Transaction distribution
system.tol2bus.trans_dist::ReadExResp          149436                       # Transaction distribution
system.tol2bus.trans_dist::ReadCleanReq           711                       # Transaction distribution
system.tol2bus.trans_dist::ReadSharedReq          180                       # Transaction distribution
system.tol2bus.pkt_count_system.cpu.icache.mem_side::system.l2.cpu_side         1710                       # Packet count per connected master and slave (bytes)
system.tol2bus.pkt_count_system.cpu.dcache.mem_side::system.l2.cpu_side       447824                       # Packet count per connected master and slave (bytes)
system.tol2bus.pkt_count::total                449534                       # Packet count per connected master and slave (bytes)
system.tol2bus.pkt_size_system.cpu.icache.mem_side::system.l2.cpu_side        63936                       # Cumulative packet size per connected master and slave (bytes)
system.tol2bus.pkt_size_system.cpu.dcache.mem_side::system.l2.cpu_side     19074944                       # Cumulative packet size per connected master and slave (bytes)
system.tol2bus.pkt_size::total               19138880                       # Cumulative packet size per connected master and slave (bytes)
system.tol2bus.snoops                          117442                       # Total snoops (count)
system.tol2bus.snoopTraffic                   7467712                       # Total snoop traffic (bytes)
system.tol2bus.snoop_fanout::samples           267769                       # Request fanout histogram
system.tol2bus.snoop_fanout::mean            0.001830                       # Request fanout histogram
system.tol2bus.snoop_fanout::stdev           0.042826                       # Request fanout histogram
system.tol2bus.snoop_fanout::underflows             0      0.00%      0.00% # Request fanout histogram
system.tol2bus.snoop_fanout::0                 267280     99.82%     99.82% # Request fanout histogram
system.tol2bus.snoop_fanout::1                    488      0.18%    100.00% # Request fanout histogram
system.tol2bus.snoop_fanout::2                      1      0.00%    100.00% # Request fanout histogram
system.tol2bus.snoop_fanout::overflows              0      0.00%    100.00% # Request fanout histogram
system.tol2bus.snoop_fanout::min_value              0                       # Request fanout histogram
system.tol2bus.snoop_fanout::max_value              2                       # Request fanout histogram
system.tol2bus.snoop_fanout::total             267769                       # Request fanout histogram
system.tol2bus.reqLayer0.occupancy          298321500                       # Layer occupancy (ticks)
system.tol2bus.reqLayer0.utilization              1.7                       # Layer utilization (%)
system.tol2bus.respLayer1.occupancy         224427992                       # Layer occupancy (ticks)
system.tol2bus.respLayer1.utilization             1.3                       # Layer utilization (%)
system.tol2bus.respLayer0.occupancy           1068496                       # Layer occupancy (ticks)
system.tol2bus.respLayer0.utilization             0.0                       # Layer utilization (%)
system.voltage_domain.voltage                       1                       # Voltage in Volts
system.clk_domain.clock                          1000                       # Clock period in ticks
system.l2.pwrStateResidencyTicks::UNDEFINED  17153679500                       # Cumulative time (in ticks) in various power states
system.l2.demand_hits::.cpu.inst                   92                       # number of demand (read+write) hits
system.l2.demand_hits::.cpu.data                   13                       # number of demand (read+write) hits
system.l2.demand_hits::total                      105                       # number of demand (read+write) hits
system.l2.overall_hits::.cpu.inst                  92                       # number of overall hits
system.l2.overall_hits::.cpu.data                  13                       # number of overall hits
system.l2.overall_hits::total                     105                       # number of overall hits
system.l2.demand_misses::.cpu.inst                619                       # number of demand (read+write) misses
system.l2.demand_misses::.cpu.data             149603                       # number of demand (read+write) misses
system.l2.demand_misses::total                 150222                       # number of demand (read+write) misses
system.l2.overall_misses::.cpu.inst               619                       # number of overall misses
system.l2.overall_misses::.cpu.data            149603                       # number of overall misses
system.l2.overall_misses::total                150222                       # number of overall misses
system.l2.demand_miss_latency::.cpu.inst     46633500                       # number of demand (read+write) miss cycles
system.l2.demand_miss_latency::.cpu.data  11770736000                       # number of demand (read+write) miss cycles
system.l2.demand_miss_latency::total      11817369500                       # number of demand (read+write) miss cycles
system.l2.overall_miss_latency::.cpu.inst     46633500                       # number of overall miss cycles
system.l2.overall_miss_latency::.cpu.data  11770736000                       # number of overall miss cycles
system.l2.overall_miss_latency::total     11817369500                       # number of overall miss cycles
system.l2.demand_accesses::.cpu.inst              711                       # number of demand (read+write) accesses
system.l2.demand_accesses::.cpu.data           149616                       # number of demand (read+write) accesses
system.l2.demand_accesses::total               150327                       # number of demand (read+write) accesses
system.l2.overall_accesses::.cpu.inst             711                       # number of overall (read+write) accesses
system.l2.overall_accesses::.cpu.data          149616                       # number of overall (read+write) accesses
system.l2.overall_accesses::total              150327                       # number of overall (read+write) accesses
system.l2.demand_miss_rate::.cpu.inst        0.870605                       # miss rate for demand accesses
system.l2.demand_miss_rate::.cpu.data        0.999913                       # miss rate for demand accesses
system.l2.demand_miss_rate::total            0.999302                       # miss rate for demand accesses
system.l2.overall_miss_rate::.cpu.inst       0.870605                       # miss rate for overall accesses
system.l2.overall_miss_rate::.cpu.data       0.999913                       # miss rate for overall accesses
system.l2.overall_miss_rate::total           0.999302                       # miss rate for overall accesses
system.l2.demand_avg_miss_latency::.cpu.inst 75336.833603                       # average overall miss latency
system.l2.demand_avg_miss_latency::.cpu.data 78679.812571                       # average overall miss latency
system.l2.demand_avg_miss_latency::total 78666.037598                       # average overall miss latency
system.l2.overall_avg_miss_latency::.cpu.inst 75336.833603                       # average overall miss latency
system.l2.overall_avg_miss_latency::.cpu.data 78679.812571                       # average overall miss latency
system.l2.overall_avg_miss_latency::total 78666.037598                       # average overall miss latency
system.l2.blocked_cycles::no_mshrs                  0                       # number of cycles access was blocked
system.l2.blocked_cycles::no_targets                0                       # number of cycles access was blocked
system.l2.blocked::no_mshrs                         0                       # number of cycles access was blocked
system.l2.blocked::no_targets                       0                       # number of cycles access was blocked
system.l2.avg_blocked_cycles::no_mshrs            nan                       # average number of cycles each access was blocked
system.l2.avg_blocked_cycles::no_targets          nan                       # average number of cycles each access was blocked
system.l2.writebacks::.writebacks              116683                       # number of writebacks
system.l2.writebacks::total                    116683                       # number of writebacks
system.l2.demand_mshr_hits::.cpu.inst               4                       # number of demand (read+write) MSHR hits
system.l2.demand_mshr_hits::.cpu.data               8                       # number of demand (read+write) MSHR hits
system.l2.demand_mshr_hits::total                  12                       # number of demand (read+write) MSHR hits
system.l2.overall_mshr_hits::.cpu.inst              4                       # number of overall MSHR hits
system.l2.overall_mshr_hits::.cpu.data              8                       # number of overall MSHR hits
system.l2.overall_mshr_hits::total                 12                       # number of overall MSHR hits
system.l2.demand_mshr_misses::.cpu.inst           615                       # number of demand (read+write) MSHR misses
system.l2.demand_mshr_misses::.cpu.data        149595                       # number of demand (read+write) MSHR misses
system.l2.demand_mshr_misses::total            150210                       # number of demand (read+write) MSHR misses
system.l2.overall_mshr_misses::.cpu.inst          615                       # number of overall MSHR misses
system.l2.overall_mshr_misses::.cpu.data       149595                       # number of overall MSHR misses
system.l2.overall_mshr_misses::total           150210                       # number of overall MSHR misses
system.l2.demand_mshr_miss_latency::.cpu.inst     40225000                       # number of demand (read+write) MSHR miss cycles
system.l2.demand_mshr_miss_latency::.cpu.data  10274226500                       # number of demand (read+write) MSHR miss cycles
system.l2.demand_mshr_miss_latency::total  10314451500                       # number of demand (read+write) MSHR miss cycles
system.l2.overall_mshr_miss_latency::.cpu.inst     40225000                       # number of overall MSHR miss cycles
system.l2.overall_mshr_miss_latency::.cpu.data  10274226500                       # number of overall MSHR miss cycles
system.l2.overall_mshr_miss_latency::total  10314451500                       # number of overall MSHR miss cycles
system.l2.demand_mshr_miss_rate::.cpu.inst     0.864979                       # mshr miss rate for demand accesses
system.l2.demand_mshr_miss_rate::.cpu.data     0.999860                       # mshr miss rate for demand accesses
system.l2.demand_mshr_miss_rate::total       0.999222                       # mshr miss rate for demand accesses
system.l2.overall_mshr_miss_rate::.cpu.inst     0.864979                       # mshr miss rate for overall accesses
system.l2.overall_mshr_miss_rate::.cpu.data     0.999860                       # mshr miss rate for overall accesses
system.l2.overall_mshr_miss_rate::total      0.999222                       # mshr miss rate for overall accesses
system.l2.demand_avg_mshr_miss_latency::.cpu.inst 65406.504065                       # average overall mshr miss latency
system.l2.demand_avg_mshr_miss_latency::.cpu.data 68680.280090                       # average overall mshr miss latency
system.l2.demand_avg_mshr_miss_latency::total 68666.876373                       # average overall mshr miss latency
system.l2.overall_avg_mshr_miss_latency::.cpu.inst 65406.504065                       # average overall mshr miss latency
system.l2.overall_avg_mshr_miss_latency::.cpu.data 68680.280090                       # average overall mshr miss latency
system.l2.overall_avg_mshr_miss_latency::total 68666.876373                       # average overall mshr miss latency
system.l2.replacements                         117442                       # number of replacements
system.l2.WritebackDirty_hits::.writebacks       148430                       # number of WritebackDirty hits
system.l2.WritebackDirty_hits::total           148430                       # number of WritebackDirty hits
system.l2.WritebackDirty_accesses::.writebacks       148430                       # number of WritebackDirty accesses(hits+misses)
system.l2.WritebackDirty_accesses::total       148430                       # number of WritebackDirty accesses(hits+misses)
system.l2.WritebackClean_hits::.writebacks          259                       # number of WritebackClean hits
system.l2.WritebackClean_hits::total              259                       # number of WritebackClean hits
system.l2.WritebackClean_accesses::.writebacks          259                       # number of WritebackClean accesses(hits+misses)
system.l2.WritebackClean_accesses::total          259                       # number of WritebackClean accesses(hits+misses)
system.l2.ReadExReq_misses::.cpu.data          149436                       # number of ReadExReq misses
system.l2.ReadExReq_misses::total              149436                       # number of ReadExReq misses
system.l2.ReadExReq_miss_latency::.cpu.data  11757648500                       # number of ReadExReq miss cycles
system.l2.ReadExReq_miss_latency::total   11757648500                       # number of ReadExReq miss cycles
system.l2.ReadExReq_accesses::.cpu.data        149436                       # number of ReadExReq accesses(hits+misses)
system.l2.ReadExReq_accesses::total            149436                       # number of ReadExReq accesses(hits+misses)
system.l2.ReadExReq_miss_rate::.cpu.data            1                       # miss rate for ReadExReq accesses
system.l2.ReadExReq_miss_rate::total                1                       # miss rate for ReadExReq accesses
system.l2.ReadExReq_avg_miss_latency::.cpu.data 78680.160738                       # average ReadExReq miss latency
system.l2.ReadExReq_avg_miss_latency::total 78680.160738                       # average ReadExReq miss latency
system.l2.ReadExReq_mshr_misses::.cpu.data       149436                       # number of ReadExReq MSHR misses
system.l2.ReadExReq_mshr_misses::total         149436                       # number of ReadExReq MSHR misses
system.l2.ReadExReq_mshr_miss_latency::.cpu.data  10263288500                       # number of ReadExReq MSHR miss cycles
system.l2.ReadExReq_mshr_miss_latency::total  10263288500                       # number of ReadExReq MSHR miss cycles
system.l2.ReadExReq_mshr_miss_rate::.cpu.data            1                       # mshr miss rate for ReadExReq accesses
system.l2.ReadExReq_mshr_miss_rate::total            1                       # mshr miss rate for ReadExReq accesses
system.l2.ReadExReq_avg_mshr_miss_latency::.cpu.data 68680.160738                       # average ReadExReq mshr miss latency
system.l2.ReadExReq_avg_mshr_miss_latency::total 68680.160738                       # average ReadExReq mshr miss latency
system.l2.ReadCleanReq_hits::.cpu.inst             92                       # number of ReadCleanReq hits
system.l2.ReadCleanReq_hits::total                 92                       # number of ReadCleanReq hits
system.l2.ReadCleanReq_misses::.cpu.inst          619                       # number of ReadCleanReq misses
system.l2.ReadCleanReq_misses::total              619                       # number of ReadCleanReq misses
system.l2.ReadCleanReq_miss_latency::.cpu.inst     46633500                       # number of ReadCleanReq miss cycles
system.l2.ReadCleanReq_miss_latency::total     46633500                       # number of ReadCleanReq miss cycles
system.l2.ReadCleanReq_accesses::.cpu.inst          711                       # number of ReadCleanReq accesses(hits+misses)
system.l2.ReadCleanReq_accesses::total            711                       # number of ReadCleanReq accesses(hits+misses)
system.l2.ReadCleanReq_miss_rate::.cpu.inst     0.870605                       # miss rate for ReadCleanReq accesses
system.l2.ReadCleanReq_miss_rate::total      0.870605                       # miss rate for ReadCleanReq accesses
system.l2.ReadCleanReq_avg_miss_latency::.cpu.inst 75336.833603                       # average ReadCleanReq miss latency
system.l2.ReadCleanReq_avg_miss_latency::total 75336.833603                       # average ReadCleanReq miss latency
system.l2.ReadCleanReq_mshr_hits::.cpu.inst            4                       # number of ReadCleanReq MSHR hits
system.l2.ReadCleanReq_mshr_hits::total             4                       # number of ReadCleanReq MSHR hits
system.l2.ReadCleanReq_mshr_misses::.cpu.inst          615                       # number of ReadCleanReq MSHR misses
system.l2.ReadCleanReq_mshr_misses::total          615                       # number of ReadCleanReq MSHR misses
system.l2.ReadCleanReq_mshr_miss_latency::.cpu.inst     40225000                       # number of ReadCleanReq MSHR miss cycles
system.l2.ReadCleanReq_mshr_miss_latency::total     40225000                       # number of ReadCleanReq MSHR miss cycles
system.l2.ReadCleanReq_mshr_miss_rate::.cpu.inst     0.864979                       # mshr miss rate for ReadCleanReq accesses
system.l2.ReadCleanReq_mshr_miss_rate::total     0.864979                       # mshr miss rate for ReadCleanReq accesses
system.l2.ReadCleanReq_avg_mshr_miss_latency::.cpu.inst 65406.504065                       # average ReadCleanReq mshr miss latency
system.l2.ReadCleanReq_avg_mshr_miss_latency::total 65406.504065                       # average ReadCleanReq mshr miss latency
system.l2.ReadSharedReq_hits::.cpu.data            13                       # number of ReadSharedReq hits
system.l2.ReadSharedReq_hits::total                13                       # number of ReadSharedReq hits
system.l2.ReadSharedReq_misses::.cpu.data          167                       # number of ReadSharedReq misses
system.l2.ReadSharedReq_misses::total             167                       # number of ReadSharedReq misses
system.l2.ReadSharedReq_miss_latency::.cpu.data     13087500                       # number of ReadSharedReq miss cycles
system.l2.ReadSharedReq_miss_latency::total     13087500                       # number of ReadSharedReq miss cycles
system.l2.ReadSharedReq_accesses::.cpu.data          180                       # number of ReadSharedReq accesses(hits+misses)
system.l2.ReadSharedReq_accesses::total           180                       # number of ReadSharedReq accesses(hits+misses)
system.l2.ReadSharedReq_miss_rate::.cpu.data     0.927778                       # miss rate for ReadSharedReq accesses
system.l2.ReadSharedReq_miss_rate::total     0.927778                       # miss rate for ReadSharedReq accesses
system.l2.ReadSharedReq_avg_miss_latency::.cpu.data 78368.263473                       # average ReadSharedReq miss latency
system.l2.ReadSharedReq_avg_miss_latency::total 78368.263473                       # average ReadSharedReq miss latency
system.l2.ReadSharedReq_mshr_hits::.cpu.data            8                       # number of ReadSharedReq MSHR hits
system.l2.ReadSharedReq_mshr_hits::total            8                       # number of ReadSharedReq MSHR hits
system.l2.ReadSharedReq_mshr_misses::.cpu.data          159                       # number of ReadSharedReq MSHR misses
system.l2.ReadSharedReq_mshr_misses::total          159                       # number of ReadSharedReq MSHR misses
system.l2.ReadSharedReq_mshr_miss_latency::.cpu.data     10938000                       # number of ReadSharedReq MSHR miss cycles
system.l2.ReadSharedReq_mshr_miss_latency::total     10938000                       # number of ReadSharedReq MSHR miss cycles
system.l2.ReadSharedReq_mshr_miss_rate::.cpu.data     0.883333                       # mshr miss rate for ReadSharedReq accesses
system.l2.ReadSharedReq_mshr_miss_rate::total     0.883333                       # mshr miss rate for ReadSharedReq accesses
system.l2.ReadSharedReq_avg_mshr_miss_latency::.cpu.data 68792.452830                       # average ReadSharedReq mshr miss latency
system.l2.ReadSharedReq_avg_mshr_miss_latency::total 68792.452830                       # average ReadSharedReq mshr miss latency
system.l2.tags.pwrStateResidencyTicks::UNDEFINED  17153679500                       # Cumulative time (in ticks) in various power states
system.l2.tags.tagsinuse                 29374.615354                       # Cycle average of tags in use
system.l2.tags.total_refs                      299132                       # Total number of references to valid blocks.
system.l2.tags.sampled_refs                    150210                       # Sample count of references to valid blocks.
system.l2.tags.avg_refs                      1.991425                       # Average number of references to valid blocks.
system.l2.tags.warmup_cycle                     77000                       # Cycle when the warmup percentage was hit.
system.l2.tags.occ_blocks::.cpu.inst       123.984402                       # Average occupied blocks per requestor
system.l2.tags.occ_blocks::.cpu.data     29250.630952                       # Average occupied blocks per requestor
system.l2.tags.occ_percent::.cpu.inst        0.003784                       # Average percentage of cache occupancy
system.l2.tags.occ_percent::.cpu.data        0.892658                       # Average percentage of cache occupancy
system.l2.tags.occ_percent::total            0.896442                       # Average percentage of cache occupancy
system.l2.tags.occ_task_id_blocks::1024         32768                       # Occupied blocks per task id
system.l2.tags.age_task_id_blocks_1024::0           85                       # Occupied blocks per task id
system.l2.tags.age_task_id_blocks_1024::1          778                       # Occupied blocks per task id
system.l2.tags.age_task_id_blocks_1024::2         7787                       # Occupied blocks per task id
system.l2.tags.age_task_id_blocks_1024::3        24118                       # Occupied blocks per task id
system.l2.tags.occ_task_id_percent::1024            1                       # Percentage of cache occupancy per task id
system.l2.tags.tag_accesses                   4936514                       # Number of tag accesses
system.l2.tags.data_accesses                  4936514                       # Number of data accesses
system.cpu_voltage_domain.voltage                   1                       # Voltage in Volts
system.mem_ctrls.pwrStateResidencyTicks::UNDEFINED  17153679500                       # Cumulative time (in ticks) in various power states
system.mem_ctrls.bytes_read::.cpu.inst          39360                       # Number of bytes read from this memory
system.mem_ctrls.bytes_read::.cpu.data        9574080                       # Number of bytes read from this memory
system.mem_ctrls.bytes_read::total            9613440                       # Number of bytes read from this memory
system.mem_ctrls.bytes_inst_read::.cpu.inst        39360                       # Number of instructions bytes read from this memory
system.mem_ctrls.bytes_inst_read::total         39360                       # Number of instructions bytes read from this memory
system.mem_ctrls.bytes_written::.writebacks      7467712                       # Number of bytes written to this memory
system.mem_ctrls.bytes_written::total         7467712                       # Number of bytes written to this memory
system.mem_ctrls.num_reads::.cpu.inst             615                       # Number of read requests responded to by this memory
system.mem_ctrls.num_reads::.cpu.data          149595                       # Number of read requests responded to by this memory
system.mem_ctrls.num_reads::total              150210                       # Number of read requests responded to by this memory
system.mem_ctrls.num_writes::.writebacks       116683                       # Number of write requests responded to by this memory
system.mem_ctrls.num_writes::total             116683                       # Number of write requests responded to by this memory
system.mem_ctrls.bw_read::.cpu.inst           2294551                       # Total read bandwidth from this memory (bytes/s)
system.mem_ctrls.bw_read::.cpu.data         558135647                       # Total read bandwidth from this memory (bytes/s)
system.mem_ctrls.bw_read::total             560430198                       # Total read bandwidth from this memory (bytes/s)
system.mem_ctrls.bw_inst_read::.cpu.inst      2294551                       # Instruction read bandwidth from this memory (bytes/s)
system.mem_ctrls.bw_inst_read::total          2294551                       # Instruction read bandwidth from this memory (bytes/s)
system.mem_ctrls.bw_write::.writebacks      435341700                       # Write bandwidth from this memory (bytes/s)
system.mem_ctrls.bw_write::total            435341700                       # Write bandwidth from this memory (bytes/s)
system.mem_ctrls.bw_total::.writebacks      435341700                       # Total bandwidth to/from this memory (bytes/s)
system.mem_ctrls.bw_total::.cpu.inst          2294551                       # Total bandwidth to/from this memory (bytes/s)
system.mem_ctrls.bw_total::.cpu.data        558135647                       # Total bandwidth to/from this memory (bytes/s)
system.mem_ctrls.bw_total::total            995771898                       # Total bandwidth to/from this memory (bytes/s)
system.mem_ctrls.avgPriority_.writebacks::samples    116683.00                       # Average QoS priority value for accepted requests
system.mem_ctrls.avgPriority_.cpu.inst::samples       615.00                       # Average QoS priority value for accepted requests
system.mem_ctrls.avgPriority_.cpu.data::samples    149595.00                       # Average QoS priority value for accepted requests
system.mem_ctrls.priorityMinLatency      0.000000018750                       # per QoS priority minimum request to response latency (s)
system.mem_ctrls.priorityMaxLatency      0.000349446500                       # per QoS priority maximum request to response latency (s)
system.mem_ctrls.numReadWriteTurnArounds         7290                       # Number of turnarounds from READ to WRITE
system.mem_ctrls.numWriteReadTurnArounds         7290                       # Number of turnarounds from WRITE to READ
system.mem_ctrls.numStayReadState              414113                       # Number of times bus staying in READ state
system.mem_ctrls.numStayWriteState             109492                       # Number of times bus staying in WRITE state
system.mem_ctrls.readReqs                      150210                       # Number of read requests accepted
system.mem_ctrls.writeReqs                     116683                       # Number of write requests accepted
system.mem_ctrls.readBursts                    150210                       # Number of DRAM read bursts, including those serviced by the write queue
system.mem_ctrls.writeBursts                   116683                       # Number of DRAM write bursts, including those merged in the write queue
system.mem_ctrls.servicedByWrQ                      0                       # Number of DRAM read bursts serviced by the write queue
system.mem_ctrls.mergedWrBursts                     0                       # Number of DRAM write bursts merged with an existing one
system.mem_ctrls.neitherReadNorWriteReqs            0                       # Number of requests that are neither read nor write
system.mem_ctrls.perBankRdBursts::0              9478                       # Per bank write bursts
system.mem_ctrls.perBankRdBursts::1              9393                       # Per bank write bursts
system.mem_ctrls.perBankRdBursts::2              9362                       # Per bank write bursts
system.mem_ctrls.perBankRdBursts::3              9319                       # Per bank write bursts
system.mem_ctrls.perBankRdBursts::4              9490                       # Per bank write bursts
system.mem_ctrls.perBankRdBursts::5              9363                       # Per bank write bursts
system.mem_ctrls.perBankRdBursts::6              9376                       # Per bank write bursts
system.mem_ctrls.perBankRdBursts::7              9414                       # Per bank write bursts
system.mem_ctrls.perBankRdBursts::8              9400                       # Per bank write bursts
system.mem_ctrls.perBankRdBursts::9              9383                       # Per bank write bursts
system.mem_ctrls.perBankRdBursts::10             9351                       # Per bank write bursts
system.mem_ctrls.perBankRdBursts::11             9355                       # Per bank write bursts
system.mem_ctrls.perBankRdBursts::12             9420                       # Per bank write bursts
system.mem_ctrls.perBankRdBursts::13             9350                       # Per bank write bursts
system.mem_ctrls.perBankRdBursts::14             9376                       # Per bank write bursts
system.mem_ctrls.perBankRdBursts::15             9380                       # Per bank write bursts
system.mem_ctrls.perBankWrBursts::0              7329                       # Per bank write bursts
system.mem_ctrls.perBankWrBursts::1              7331                       # Per bank write bursts
system.mem_ctrls.perBankWrBursts::2              7278                       # Per bank write bursts
system.mem_ctrls.perBankWrBursts::3              7168                       # Per bank write bursts
system.mem_ctrls.perBankWrBursts::4              7297                       # Per bank write bursts
system.mem_ctrls.perBankWrBursts::5              7296                       # Per bank write bursts
system.mem_ctrls.perBankWrBursts::6              7296                       # Per bank write bursts
system.mem_ctrls.perBankWrBursts::7              7296                       # Per bank write bursts
system.mem_ctrls.perBankWrBursts::8              7296                       # Per bank write bursts
system.mem_ctrls.perBankWrBursts::9              7296                       # Per bank write bursts
system.mem_ctrls.perBankWrBursts::10             7296                       # Per bank write bursts
system.mem_ctrls.perBankWrBursts::11             7296                       # Per bank write bursts
system.mem_ctrls.perBankWrBursts::12             7296                       # Per bank write bursts
system.mem_ctrls.perBankWrBursts::13             7296                       # Per bank write bursts
system.mem_ctrls.perBankWrBursts::14             7296                       # Per bank write bursts
system.mem_ctrls.perBankWrBursts::15             7296                       # Per bank write bursts
system.mem_ctrls.avgRdQLen                       1.00                       # Average read queue length when enqueuing
system.mem_ctrls.avgWrQLen                      20.45                       # Average write queue length when enqueuing
system.mem_ctrls.totQLat                   1314189000                       # Total ticks spent queuing
system.mem_ctrls.totBusLat                  751050000                       # Total ticks spent in databus transfers
system.mem_ctrls.totMemAccLat              4130626500                       # Total ticks spent from burst creation until serviced by the DRAM
system.mem_ctrls.avgQLat                      8749.01                       # Average queueing delay per DRAM burst
system.mem_ctrls.avgBusLat                    5000.00                       # Average bus latency per DRAM burst
system.mem_ctrls.avgMemAccLat                27499.01                       # Average memory access latency per DRAM burst
system.mem_ctrls.numRdRetry                         0                       # Number of times read queue was full causing retry
system.mem_ctrls.numWrRetry                         0                       # Number of times write queue was full causing retry
system.mem_ctrls.readRowHits                   138145                       # Number of row buffer hits during reads
system.mem_ctrls.writeRowHits                  108977                       # Number of row buffer hits during writes
system.mem_ctrls.readRowHitRate                 91.97                       # Row buffer hit rate for reads
system.mem_ctrls.writeRowHitRate                93.40                       # Row buffer hit rate for writes
system.mem_ctrls.readPktSize::0                     0                       # Read request sizes (log2)
system.mem_ctrls.readPktSize::1                     0                       # Read request sizes (log2)
system.mem_ctrls.readPktSize::2                     0                       # Read request sizes (log2)
system.mem_ctrls.readPktSize::3                     0                       # Read request sizes (log2)
system.mem_ctrls.readPktSize::4                     0                       # Read request sizes (log2)
system.mem_ctrls.readPktSize::5                     0                       # Read request sizes (log2)
system.mem_ctrls.readPktSize::6                150210                       # Read request sizes (log2)
system.mem_ctrls.writePktSize::0                    0                       # Write request sizes (log2)
system.mem_ctrls.writePktSize::1                    0                       # Write request sizes (log2)
system.mem_ctrls.writePktSize::2                    0                       # Write request sizes (log2)
system.mem_ctrls.writePktSize::3                    0                       # Write request sizes (log2)
system.mem_ctrls.writePktSize::4                    0                       # Write request sizes (log2)
system.mem_ctrls.writePktSize::5                    0                       # Write request sizes (log2)
system.mem_ctrls.writePktSize::6               116683                       # Write request sizes (log2)
system.mem_ctrls.rdQLenPdf::0                  150064                       # What read queue length does an incoming req see
system.mem_ctrls.rdQLenPdf::1                     135                       # What read queue length does an incoming req see
system.mem_ctrls.rdQLenPdf::2                      11                       # What read queue length does an incoming req see
system.mem_ctrls.rdQLenPdf::3                       0                       # What read queue length does an incoming req see
system.mem_ctrls.rdQLenPdf::4                       0                       # What read queue length does an incoming req see
system.mem_ctrls.rdQLenPdf::5                       0                       # What read queue length does an incoming req see
system.mem_ctrls.rdQLenPdf::6                       0                       # What read queue length does an incoming req see
system.mem_ctrls.rdQLenPdf::7                       0                       # What read queue length does an incoming req see
system.mem_ctrls.rdQLenPdf::8                       0                       # What read queue length does an incoming req see
system.mem_ctrls.rdQLenPdf::9                       0                       # What read queue length does an incoming req see
system.mem_ctrls.rdQLenPdf::10                      0                       # What read queue length does an incoming req see
system.mem_ctrls.rdQLenPdf::11                      0                       # What read queue length does an incoming req see
system.mem_ctrls.rdQLenPdf::12                      0                       # What read queue length does an incoming req see
system.mem_ctrls.rdQLenPdf::13                      0                       # What read queue length does an incoming req see
system.mem_ctrls.rdQLenPdf::14                      0                       # What read queue length does an incoming req see
system.mem_ctrls.rdQLenPdf::15                      0                       # What read queue length does an incoming req see
system.mem_ctrls.rdQLenPdf::16                      0                       # What read queue length does an incoming req see
system.mem_ctrls.rdQLenPdf::17                      0                       # What read queue length does an incoming req see
system.mem_ctrls.rdQLenPdf::18                      0                       # What read queue length does an incoming req see
system.mem_ctrls.rdQLenPdf::19                      0                       # What read queue length does an incoming req see
system.mem_ctrls.rdQLenPdf::20                      0                       # What read queue length does an incoming req see
system.mem_ctrls.rdQLenPdf::21                      0                       # What read queue length does an incoming req see
system.mem_ctrls.rdQLenPdf::22                      0                       # What read queue length does an incoming req see
system.mem_ctrls.rdQLenPdf::23                      0                       # What read queue length does an incoming req see
system.mem_ctrls.rdQLenPdf::24                      0                       # What read queue length does an incoming req see
system.mem_ctrls.rdQLenPdf::25                      0                       # What read queue length does an incoming req see
system.mem_ctrls.rdQLenPdf::26                      0                       # What read queue length does an incoming req see
system.mem_ctrls.rdQLenPdf::27                      0                       # What read queue length does an incoming req see
system.mem_ctrls.rdQLenPdf::28                      0                       # What read queue length does an incoming req see
system.mem_ctrls.rdQLenPdf::29                      0                       # What read queue length does an incoming req see
system.mem_ctrls.rdQLenPdf::30                      0                       # What read queue length does an incoming req see
system.mem_ctrls.rdQLenPdf::31                      0                       # What read queue length does an incoming req see
system.mem_ctrls.wrQLenPdf::0                       1                       # What write queue length does an incoming req see
system.mem_ctrls.wrQLenPdf::1                       1                       # What write queue length does an incoming req see
system.mem_ctrls.wrQLenPdf::2                       1                       # What write queue length does an incoming req see
system.mem_ctrls.wrQLenPdf::3                       1                       # What write queue length does an incoming req see
system.mem_ctrls.wrQLenPdf::4                       1                       # What write queue length does an incoming req see
system.mem_ctrls.wrQLenPdf::5                       1                       # What write queue length does an incoming req see
system.mem_ctrls.wrQLenPdf::6                       1                       # What write queue length does an incoming req see
system.mem_ctrls.wrQLenPdf::7                       1                       # What write queue length does an incoming req see
system.mem_ctrls.wrQLenPdf::8                       1                       # What write queue length does an incoming req see
system.mem_ctrls.wrQLenPdf::9                       1                       # What write queue length does an incoming req see
system.mem_ctrls.wrQLenPdf::10                      1                       # What write queue length does an incoming req see
system.mem_ctrls.wrQLenPdf::11                      1                       # What write queue length does an incoming req see
system.mem_ctrls.wrQLenPdf::12                      1                       # What write queue length does an incoming req see
system.mem_ctrls.wrQLenPdf::13                      1                       # What write queue length does an incoming req see
system.mem_ctrls.wrQLenPdf::14                      1                       # What write queue length does an incoming req see
system.mem_ctrls.wrQLenPdf::15                      2                       # What write queue length does an incoming req see
system.mem_ctrls.wrQLenPdf::16                     10                       # What write queue length does an incoming req see
system.mem_ctrls.wrQLenPdf::17                   7291                       # What write queue length does an incoming req see
system.mem_ctrls.wrQLenPdf::18                   7291                       # What write queue length does an incoming req see
system.mem_ctrls.wrQLenPdf::19                   7291                       # What write queue length does an incoming req see
system.mem_ctrls.wrQLenPdf::20                   7291                       # What write queue length does an incoming req see
system.mem_ctrls.wrQLenPdf::21                   7291                       # What write queue length does an incoming req see
system.mem_ctrls.wrQLenPdf::22                   7291                       # What write queue length does an incoming req see
system.mem_ctrls.wrQLenPdf::23                   7291                       # What write queue length does an incoming req see
system.mem_ctrls.wrQLenPdf::24                   7291                       # What write queue length does an incoming req see
system.mem_ctrls.wrQLenPdf::25                   7298                       # What write queue length does an incoming req see
system.mem_ctrls.wrQLenPdf::26                   7290                       # What write queue length does an incoming req see
system.mem_ctrls.wrQLenPdf::27                   7290                       # What write queue length does an incoming req see
system.mem_ctrls.wrQLenPdf::28                   7290                       # What write queue length does an incoming req see
system.mem_ctrls.wrQLenPdf::29                   7290                       # What write queue length does an incoming req see
system.mem_ctrls.wrQLenPdf::30                   7290                       # What write queue length does an incoming req see
system.mem_ctrls.wrQLenPdf::31                   7290                       # What write queue length does an incoming req see
system.mem_ctrls.wrQLenPdf::32                   7290                       # What write queue length does an incoming req see
system.mem_ctrls.wrQLenPdf::33                      0                       # What write queue length does an incoming req see
system.mem_ctrls.wrQLenPdf::34                      0                       # What write queue length does an incoming req see
system.mem_ctrls.wrQLenPdf::35                      0                       # What write queue length does an incoming req see
system.mem_ctrls.wrQLenPdf::36                      0                       # What write queue length does an incoming req see
system.mem_ctrls.wrQLenPdf::37                      0                       # What write queue length does an incoming req see
system.mem_ctrls.wrQLenPdf::38                      0                       # What write queue length does an incoming req see
system.mem_ctrls.wrQLenPdf::39                      0                       # What write queue length does an incoming req see
system.mem_ctrls.wrQLenPdf::40                      0                       # What write queue length does an incoming req see
system.mem_ctrls.wrQLenPdf::41                      0                       # What write queue length does an incoming req see
system.mem_ctrls.wrQLenPdf::42                      0                       # What write queue length does an incoming req see
system.mem_ctrls.wrQLenPdf::43                      0                       # What write queue length does an incoming req see
system.mem_ctrls.wrQLenPdf::44                      0                       # What write queue length does an incoming req see
system.mem_ctrls.wrQLenPdf::45                      0                       # What write queue length does an incoming req see
system.mem_ctrls.wrQLenPdf::46                      0                       # What write queue length does an incoming req see
system.mem_ctrls.wrQLenPdf::47                      0                       # What write queue length does an incoming req see
system.mem_ctrls.wrQLenPdf::48                      0                       # What write queue length does an incoming req see
system.mem_ctrls.wrQLenPdf::49                      0                       # What write queue length does an incoming req see
system.mem_ctrls.wrQLenPdf::50                      0                       # What write queue length does an incoming req see
system.mem_ctrls.wrQLenPdf::51                      0                       # What write queue length does an incoming req see
system.mem_ctrls.wrQLenPdf::52                      0                       # What write queue length does an incoming req see
system.mem_ctrls.wrQLenPdf::53                      0                       # What write queue length does an incoming req see
system.mem_ctrls.wrQLenPdf::54                      0                       # What write queue length does an incoming req see
system.mem_ctrls.wrQLenPdf::55                      0                       # What write queue length does an incoming req see
system.mem_ctrls.wrQLenPdf::56                      0                       # What write queue length does an incoming req see
system.mem_ctrls.wrQLenPdf::57                      0                       # What write queue length does an incoming req see
system.mem_ctrls.wrQLenPdf::58                      0                       # What write queue length does an incoming req see
system.mem_ctrls.wrQLenPdf::59                      0                       # What write queue length does an incoming req see
system.mem_ctrls.wrQLenPdf::60                      0                       # What write queue length does an incoming req see
system.mem_ctrls.wrQLenPdf::61                      0                       # What write queue length does an incoming req see
system.mem_ctrls.wrQLenPdf::62                      0                       # What write queue length does an incoming req see
system.mem_ctrls.wrQLenPdf::63                      0                       # What write queue length does an incoming req see
system.mem_ctrls.bytesPerActivate::samples        19746                       # Bytes accessed per row activation
system.mem_ctrls.bytesPerActivate::mean    864.956143                       # Bytes accessed per row activation
system.mem_ctrls.bytesPerActivate::gmean   754.146752                       # Bytes accessed per row activation
system.mem_ctrls.bytesPerActivate::stdev   293.302913                       # Bytes accessed per row activation
system.mem_ctrls.bytesPerActivate::0-127          759      3.84%      3.84% # Bytes accessed per row activation
system.mem_ctrls.bytesPerActivate::128-255          651      3.30%      7.14% # Bytes accessed per row activation
system.mem_ctrls.bytesPerActivate::256-383          804      4.07%     11.21% # Bytes accessed per row activation
system.mem_ctrls.bytesPerActivate::384-511          738      3.74%     14.95% # Bytes accessed per row activation
system.mem_ctrls.bytesPerActivate::512-639          680      3.44%     18.39% # Bytes accessed per row activation
system.mem_ctrls.bytesPerActivate::640-767          791      4.01%     22.40% # Bytes accessed per row activation
system.mem_ctrls.bytesPerActivate::768-895          411      2.08%     24.48% # Bytes accessed per row activation
system.mem_ctrls.bytesPerActivate::896-1023         1214      6.15%     30.63% # Bytes accessed per row activation
system.mem_ctrls.bytesPerActivate::1024-1151        13698     69.37%    100.00% # Bytes accessed per row activation
system.mem_ctrls.bytesPerActivate::total        19746                       # Bytes accessed per row activation
system.mem_ctrls.rdPerTurnAround::samples         7290                       # Reads before turning the bus around for writes
system.mem_ctrls.rdPerTurnAround::mean      20.603978                       # Reads before turning the bus around for writes
system.mem_ctrls.rdPerTurnAround::gmean     16.034078                       # Reads before turning the bus around for writes
system.mem_ctrls.rdPerTurnAround::stdev    388.884178                       # Reads before turning the bus around for writes
system.mem_ctrls.rdPerTurnAround::0-2047         7289     99.99%     99.99% # Reads before turning the bus around for writes
system.mem_ctrls.rdPerTurnAround::32768-34815            1      0.01%    100.00% # Reads before turning the bus around for writes
system.mem_ctrls.rdPerTurnAround::total          7290                       # Reads before turning the bus around for writes
system.mem_ctrls.wrPerTurnAround::samples         7290                       # Writes before turning the bus around for reads
system.mem_ctrls.wrPerTurnAround::mean      16.002606                       # Writes before turning the bus around for reads
system.mem_ctrls.wrPerTurnAround::gmean     16.002445                       # Writes before turning the bus around for reads
system.mem_ctrls.wrPerTurnAround::stdev      0.074954                       # Writes before turning the bus around for reads
system.mem_ctrls.wrPerTurnAround::16             7281     99.88%     99.88% # Writes before turning the bus around for reads
system.mem_ctrls.wrPerTurnAround::18                8      0.11%     99.99% # Writes before turning the bus around for reads
system.mem_ctrls.wrPerTurnAround::19                1      0.01%    100.00% # Writes before turning the bus around for reads
[...]
system.cpu.icache.ReadReq_avg_miss_latency::.cpu.inst 69506.329114                       # average ReadReq miss latency
system.cpu.icache.ReadReq_avg_miss_latency::total 69506.329114                       # average ReadReq miss latency
system.cpu.icache.ReadReq_mshr_misses::.cpu.inst          711                       # number of ReadReq MSHR misses
system.cpu.icache.ReadReq_mshr_misses::total          711                       # number of ReadReq MSHR misses
system.cpu.icache.ReadReq_mshr_miss_latency::.cpu.inst     48708000                       # number of ReadReq MSHR miss cycles
system.cpu.icache.ReadReq_mshr_miss_latency::total     48708000                       # number of ReadReq MSHR miss cycles
system.cpu.icache.ReadReq_mshr_miss_rate::.cpu.inst     0.000905                       # mshr miss rate for ReadReq accesses
system.cpu.icache.ReadReq_mshr_miss_rate::total     0.000905                       # mshr miss rate for ReadReq accesses
system.cpu.icache.ReadReq_avg_mshr_miss_latency::.cpu.inst 68506.329114                       # average ReadReq mshr miss latency
system.cpu.icache.ReadReq_avg_mshr_miss_latency::total 68506.329114                       # average ReadReq mshr miss latency
system.cpu.icache.tags.pwrStateResidencyTicks::UNDEFINED  17153679500                       # Cumulative time (in ticks) in various power states
system.cpu.icache.tags.tagsinuse           422.384899                       # Cycle average of tags in use
system.cpu.icache.tags.total_refs              785505                       # Total number of references to valid blocks.
system.cpu.icache.tags.sampled_refs               711                       # Sample count of references to valid blocks.
system.cpu.icache.tags.avg_refs           1104.789030                       # Average number of references to valid blocks.
system.cpu.icache.tags.warmup_cycle             87500                       # Cycle when the warmup percentage was hit.
system.cpu.icache.tags.occ_blocks::.cpu.inst   422.384899                       # Average occupied blocks per requestor
system.cpu.icache.tags.occ_percent::.cpu.inst     0.824971                       # Average percentage of cache occupancy
system.cpu.icache.tags.occ_percent::total     0.824971                       # Average percentage of cache occupancy
system.cpu.icache.tags.occ_task_id_blocks::1024          423                       # Occupied blocks per task id
system.cpu.icache.tags.age_task_id_blocks_1024::4          423                       # Occupied blocks per task id
system.cpu.icache.tags.occ_task_id_percent::1024     0.826172                       # Percentage of cache occupancy per task id
system.cpu.icache.tags.tag_accesses           1571721                       # Number of tag accesses
system.cpu.icache.tags.data_accesses          1571721                       # Number of data accesses
system.cpu.dtb.walker.pwrStateResidencyTicks::UNDEFINED  17153679500                       # Cumulative time (in ticks) in various power states
system.cpu.dtb.stage2_mmu.stage2_tlb.walker.pwrStateResidencyTicks::UNDEFINED  17153679500                       # Cumulative time (in ticks) in various power states
system.cpu.dcache.pwrStateResidencyTicks::UNDEFINED  17153679500                       # Cumulative time (in ticks) in various power states
system.cpu.dcache.demand_hits::.cpu.data      5804482                       # number of demand (read+write) hits
system.cpu.dcache.demand_hits::total          5804482                       # number of demand (read+write) hits
system.cpu.dcache.overall_hits::.cpu.data      5804510                       # number of overall hits
system.cpu.dcache.overall_hits::total         5804510                       # number of overall hits
system.cpu.dcache.demand_misses::.cpu.data       299034                       # number of demand (read+write) misses
system.cpu.dcache.demand_misses::total         299034                       # number of demand (read+write) misses
system.cpu.dcache.overall_misses::.cpu.data       299045                       # number of overall misses
system.cpu.dcache.overall_misses::total        299045                       # number of overall misses
system.cpu.dcache.demand_miss_latency::.cpu.data  23467320500                       # number of demand (read+write) miss cycles
system.cpu.dcache.demand_miss_latency::total  23467320500                       # number of demand (read+write) miss cycles
system.cpu.dcache.overall_miss_latency::.cpu.data  23467320500                       # number of overall miss cycles
system.cpu.dcache.overall_miss_latency::total  23467320500                       # number of overall miss cycles
system.cpu.dcache.demand_accesses::.cpu.data      6103516                       # number of demand (read+write) accesses
system.cpu.dcache.demand_accesses::total      6103516                       # number of demand (read+write) accesses
system.cpu.dcache.overall_accesses::.cpu.data      6103555                       # number of overall (read+write) accesses
system.cpu.dcache.overall_accesses::total      6103555                       # number of overall (read+write) accesses
system.cpu.dcache.demand_miss_rate::.cpu.data     0.048994                       # miss rate for demand accesses
system.cpu.dcache.demand_miss_rate::total     0.048994                       # miss rate for demand accesses
system.cpu.dcache.overall_miss_rate::.cpu.data     0.048995                       # miss rate for overall accesses
system.cpu.dcache.overall_miss_rate::total     0.048995                       # miss rate for overall accesses
system.cpu.dcache.demand_avg_miss_latency::.cpu.data 78477.097922                       # average overall miss latency
system.cpu.dcache.demand_avg_miss_latency::total 78477.097922                       # average overall miss latency
system.cpu.dcache.overall_avg_miss_latency::.cpu.data 78474.211239                       # average overall miss latency
system.cpu.dcache.overall_avg_miss_latency::total 78474.211239                       # average overall miss latency
system.cpu.dcache.blocked_cycles::no_mshrs            0                       # number of cycles access was blocked
system.cpu.dcache.blocked_cycles::no_targets            0                       # number of cycles access was blocked
system.cpu.dcache.blocked::no_mshrs                 0                       # number of cycles access was blocked
system.cpu.dcache.blocked::no_targets               0                       # number of cycles access was blocked
system.cpu.dcache.avg_blocked_cycles::no_mshrs          nan                       # average number of cycles each access was blocked
system.cpu.dcache.avg_blocked_cycles::no_targets          nan                       # average number of cycles each access was blocked
system.cpu.dcache.writebacks::.writebacks       148430                       # number of writebacks
system.cpu.dcache.writebacks::total            148430                       # number of writebacks
system.cpu.dcache.demand_mshr_hits::.cpu.data       149426                       # number of demand (read+write) MSHR hits
system.cpu.dcache.demand_mshr_hits::total       149426                       # number of demand (read+write) MSHR hits
system.cpu.dcache.overall_mshr_hits::.cpu.data       149426                       # number of overall MSHR hits
system.cpu.dcache.overall_mshr_hits::total       149426                       # number of overall MSHR hits
system.cpu.dcache.demand_mshr_misses::.cpu.data       149608                       # number of demand (read+write) MSHR misses
system.cpu.dcache.demand_mshr_misses::total       149608                       # number of demand (read+write) MSHR misses
system.cpu.dcache.overall_mshr_misses::.cpu.data       149616                       # number of overall MSHR misses
system.cpu.dcache.overall_mshr_misses::total       149616                       # number of overall MSHR misses
system.cpu.dcache.demand_mshr_miss_latency::.cpu.data  11994671500                       # number of demand (read+write) MSHR miss cycles
system.cpu.dcache.demand_mshr_miss_latency::total  11994671500                       # number of demand (read+write) MSHR miss cycles
system.cpu.dcache.overall_mshr_miss_latency::.cpu.data  11995317000                       # number of overall MSHR miss cycles
system.cpu.dcache.overall_mshr_miss_latency::total  11995317000                       # number of overall MSHR miss cycles
system.cpu.dcache.demand_mshr_miss_rate::.cpu.data     0.024512                       # mshr miss rate for demand accesses
system.cpu.dcache.demand_mshr_miss_rate::total     0.024512                       # mshr miss rate for demand accesses
system.cpu.dcache.overall_mshr_miss_rate::.cpu.data     0.024513                       # mshr miss rate for overall accesses
system.cpu.dcache.overall_mshr_miss_rate::total     0.024513                       # mshr miss rate for overall accesses
system.cpu.dcache.demand_avg_mshr_miss_latency::.cpu.data 80173.998048                       # average overall mshr miss latency
system.cpu.dcache.demand_avg_mshr_miss_latency::total 80173.998048                       # average overall mshr miss latency
system.cpu.dcache.overall_avg_mshr_miss_latency::.cpu.data 80174.025505                       # average overall mshr miss latency
system.cpu.dcache.overall_avg_mshr_miss_latency::total 80174.025505                       # average overall mshr miss latency
system.cpu.dcache.replacements                 148592                       # number of replacements
system.cpu.dcache.ReadReq_hits::.cpu.data      4785474                       # number of ReadReq hits
system.cpu.dcache.ReadReq_hits::total         4785474                       # number of ReadReq hits
system.cpu.dcache.ReadReq_misses::.cpu.data          191                       # number of ReadReq misses
system.cpu.dcache.ReadReq_misses::total           191                       # number of ReadReq misses
system.cpu.dcache.ReadReq_miss_latency::.cpu.data     14271000                       # number of ReadReq miss cycles
system.cpu.dcache.ReadReq_miss_latency::total     14271000                       # number of ReadReq miss cycles
system.cpu.dcache.ReadReq_accesses::.cpu.data      4785665                       # number of ReadReq accesses(hits+misses)
system.cpu.dcache.ReadReq_accesses::total      4785665                       # number of ReadReq accesses(hits+misses)
system.cpu.dcache.ReadReq_miss_rate::.cpu.data     0.000040                       # miss rate for ReadReq accesses
system.cpu.dcache.ReadReq_miss_rate::total     0.000040                       # miss rate for ReadReq accesses
system.cpu.dcache.ReadReq_avg_miss_latency::.cpu.data 74717.277487                       # average ReadReq miss latency
system.cpu.dcache.ReadReq_avg_miss_latency::total 74717.277487                       # average ReadReq miss latency
system.cpu.dcache.ReadReq_mshr_hits::.cpu.data           19                       # number of ReadReq MSHR hits
system.cpu.dcache.ReadReq_mshr_hits::total           19                       # number of ReadReq MSHR hits
system.cpu.dcache.ReadReq_mshr_misses::.cpu.data          172                       # number of ReadReq MSHR misses
system.cpu.dcache.ReadReq_mshr_misses::total          172                       # number of ReadReq MSHR misses
system.cpu.dcache.ReadReq_mshr_miss_latency::.cpu.data     12868500                       # number of ReadReq MSHR miss cycles
system.cpu.dcache.ReadReq_mshr_miss_latency::total     12868500                       # number of ReadReq MSHR miss cycles
system.cpu.dcache.ReadReq_mshr_miss_rate::.cpu.data     0.000036                       # mshr miss rate for ReadReq accesses
system.cpu.dcache.ReadReq_mshr_miss_rate::total     0.000036                       # mshr miss rate for ReadReq accesses
system.cpu.dcache.ReadReq_avg_mshr_miss_latency::.cpu.data 74816.860465                       # average ReadReq mshr miss latency
system.cpu.dcache.ReadReq_avg_mshr_miss_latency::total 74816.860465                       # average ReadReq mshr miss latency
system.cpu.dcache.WriteReq_hits::.cpu.data      1019008                       # number of WriteReq hits
system.cpu.dcache.WriteReq_hits::total        1019008                       # number of WriteReq hits
system.cpu.dcache.WriteReq_misses::.cpu.data       298843                       # number of WriteReq misses
system.cpu.dcache.WriteReq_misses::total       298843                       # number of WriteReq misses
system.cpu.dcache.WriteReq_miss_latency::.cpu.data  23453049500                       # number of WriteReq miss cycles
system.cpu.dcache.WriteReq_miss_latency::total  23453049500                       # number of WriteReq miss cycles
system.cpu.dcache.WriteReq_accesses::.cpu.data      1317851                       # number of WriteReq accesses(hits+misses)
system.cpu.dcache.WriteReq_accesses::total      1317851                       # number of WriteReq accesses(hits+misses)
system.cpu.dcache.WriteReq_miss_rate::.cpu.data     0.226765                       # miss rate for WriteReq accesses
system.cpu.dcache.WriteReq_miss_rate::total     0.226765                       # miss rate for WriteReq accesses
system.cpu.dcache.WriteReq_avg_miss_latency::.cpu.data 78479.500942                       # average WriteReq miss latency
system.cpu.dcache.WriteReq_avg_miss_latency::total 78479.500942                       # average WriteReq miss latency
system.cpu.dcache.WriteReq_mshr_hits::.cpu.data       149407                       # number of WriteReq MSHR hits
system.cpu.dcache.WriteReq_mshr_hits::total       149407                       # number of WriteReq MSHR hits
system.cpu.dcache.WriteReq_mshr_misses::.cpu.data       149436                       # number of WriteReq MSHR misses
system.cpu.dcache.WriteReq_mshr_misses::total       149436                       # number of WriteReq MSHR misses
system.cpu.dcache.WriteReq_mshr_miss_latency::.cpu.data  11981803000                       # number of WriteReq MSHR miss cycles
system.cpu.dcache.WriteReq_mshr_miss_latency::total  11981803000                       # number of WriteReq MSHR miss cycles
system.cpu.dcache.WriteReq_mshr_miss_rate::.cpu.data     0.113394                       # mshr miss rate for WriteReq accesses
system.cpu.dcache.WriteReq_mshr_miss_rate::total     0.113394                       # mshr miss rate for WriteReq accesses
system.cpu.dcache.WriteReq_avg_mshr_miss_latency::.cpu.data 80180.164084                       # average WriteReq mshr miss latency
system.cpu.dcache.WriteReq_avg_mshr_miss_latency::total 80180.164084                       # average WriteReq mshr miss latency
system.cpu.dcache.SoftPFReq_hits::.cpu.data           28                       # number of SoftPFReq hits
system.cpu.dcache.SoftPFReq_hits::total            28                       # number of SoftPFReq hits
system.cpu.dcache.SoftPFReq_misses::.cpu.data           11                       # number of SoftPFReq misses
system.cpu.dcache.SoftPFReq_misses::total           11                       # number of SoftPFReq misses
system.cpu.dcache.SoftPFReq_accesses::.cpu.data           39                       # number of SoftPFReq accesses(hits+misses)
system.cpu.dcache.SoftPFReq_accesses::total           39                       # number of SoftPFReq accesses(hits+misses)
system.cpu.dcache.SoftPFReq_miss_rate::.cpu.data     0.282051                       # miss rate for SoftPFReq accesses
system.cpu.dcache.SoftPFReq_miss_rate::total     0.282051                       # miss rate for SoftPFReq accesses
system.cpu.dcache.SoftPFReq_mshr_misses::.cpu.data            8                       # number of SoftPFReq MSHR misses
system.cpu.dcache.SoftPFReq_mshr_misses::total            8                       # number of SoftPFReq MSHR misses
system.cpu.dcache.SoftPFReq_mshr_miss_latency::.cpu.data       645500                       # number of SoftPFReq MSHR miss cycles
system.cpu.dcache.SoftPFReq_mshr_miss_latency::total       645500                       # number of SoftPFReq MSHR miss cycles
system.cpu.dcache.SoftPFReq_mshr_miss_rate::.cpu.data     0.205128                       # mshr miss rate for SoftPFReq accesses
system.cpu.dcache.SoftPFReq_mshr_miss_rate::total     0.205128                       # mshr miss rate for SoftPFReq accesses
system.cpu.dcache.SoftPFReq_avg_mshr_miss_latency::.cpu.data 80687.500000                       # average SoftPFReq mshr miss latency
system.cpu.dcache.SoftPFReq_avg_mshr_miss_latency::total 80687.500000                       # average SoftPFReq mshr miss latency
system.cpu.dcache.LoadLockedReq_hits::.cpu.data           14                       # number of LoadLockedReq hits
system.cpu.dcache.LoadLockedReq_hits::total           14                       # number of LoadLockedReq hits
system.cpu.dcache.LoadLockedReq_accesses::.cpu.data           14                       # number of LoadLockedReq accesses(hits+misses)
system.cpu.dcache.LoadLockedReq_accesses::total           14                       # number of LoadLockedReq accesses(hits+misses)
system.cpu.dcache.StoreCondReq_hits::.cpu.data           14                       # number of StoreCondReq hits
system.cpu.dcache.StoreCondReq_hits::total           14                       # number of StoreCondReq hits
system.cpu.dcache.StoreCondReq_accesses::.cpu.data           14                       # number of StoreCondReq accesses(hits+misses)
system.cpu.dcache.StoreCondReq_accesses::total           14                       # number of StoreCondReq accesses(hits+misses)
system.cpu.dcache.tags.pwrStateResidencyTicks::UNDEFINED  17153679500                       # Cumulative time (in ticks) in various power states
system.cpu.dcache.tags.tagsinuse          1018.153410                       # Cycle average of tags in use
system.cpu.dcache.tags.total_refs             5954154                       # Total number of references to valid blocks.
system.cpu.dcache.tags.sampled_refs            149616                       # Sample count of references to valid blocks.
system.cpu.dcache.tags.avg_refs             39.796238                       # Average number of references to valid blocks.
system.cpu.dcache.tags.warmup_cycle            176500                       # Cycle when the warmup percentage was hit.
system.cpu.dcache.tags.occ_blocks::.cpu.data  1018.153410                       # Average occupied blocks per requestor
system.cpu.dcache.tags.occ_percent::.cpu.data     0.994290                       # Average percentage of cache occupancy
system.cpu.dcache.tags.occ_percent::total     0.994290                       # Average percentage of cache occupancy
system.cpu.dcache.tags.occ_task_id_blocks::1024         1024                       # Occupied blocks per task id
system.cpu.dcache.tags.age_task_id_blocks_1024::0           85                       # Occupied blocks per task id
system.cpu.dcache.tags.age_task_id_blocks_1024::1          776                       # Occupied blocks per task id
system.cpu.dcache.tags.age_task_id_blocks_1024::2          160                       # Occupied blocks per task id
system.cpu.dcache.tags.age_task_id_blocks_1024::4            3                       # Occupied blocks per task id
system.cpu.dcache.tags.occ_task_id_percent::1024            1                       # Percentage of cache occupancy per task id
system.cpu.dcache.tags.tag_accesses          12356782                       # Number of tag accesses
system.cpu.dcache.tags.data_accesses         12356782                       # Number of data accesses
system.cpu.itb.walker.pwrStateResidencyTicks::UNDEFINED  17153679500                       # Cumulative time (in ticks) in various power states
system.cpu.itb.stage2_mmu.stage2_tlb.walker.pwrStateResidencyTicks::UNDEFINED  17153679500                       # Cumulative time (in ticks) in various power states

---------- End Simulation Statistics   ----------
