
---------- Begin Simulation Statistics ----------
final_tick                                84133798500                       # Number of ticks from beginning of simulation (restored from checkpoints and never reset)
host_inst_rate                                 292105                       # Simulator instruction rate (inst/s)
host_mem_usage                                 692244                       # Number of bytes of host memory used
host_op_rate                                   295947                       # Simulator op (including micro ops) rate (op/s)
host_seconds                                   342.34                       # Real time elapsed on the host
host_tick_rate                              245758672                       # Simulator tick rate (ticks/s)
sim_freq                                 1000000000000                       # Frequency of simulated ticks
sim_insts                                   100000001                       # Number of instructions simulated
sim_ops                                     101315259                       # Number of ops (including micro ops) simulated
sim_seconds                                  0.084134                       # Number of seconds simulated
sim_ticks                                 84133798500                       # Number of ticks simulated
system.cpu.branchPred.BTBCorrect                    0                       # Number of correct BTB predictions (this stat may not work properly.
system.cpu.branchPred.BTBHitPct             99.664542                       # BTB Hit Percentage
system.cpu.branchPred.BTBHits                 2779074                       # Number of BTB hits
system.cpu.branchPred.BTBLookups              2788428                       # Number of BTB lookups
system.cpu.branchPred.RASInCorrect                 12                       # Number of incorrect RAS predictions.
system.cpu.branchPred.condIncorrect            159276                       # Number of conditional branches incorrect
system.cpu.branchPred.condPredicted           4415993                       # Number of conditional branches predicted
system.cpu.branchPred.indirectHits                390                       # Number of indirect target hits.
system.cpu.branchPred.indirectLookups             587                       # Number of indirect predictor lookups.
system.cpu.branchPred.indirectMisses              197                       # Number of indirect misses.
system.cpu.branchPred.lookups                 5453923                       # Number of BP lookups
system.cpu.branchPred.usedRAS                  120409                       # Number of times the RAS was used to get a target.
system.cpu.branchPredindirectMispredicted          192                       # Number of mispredicted indirect branches.
system.cpu.committedInsts                   100000001                       # Number of instructions committed
system.cpu.committedOps                     101315259                       # Number of ops (including micro ops) committed
system.cpu.cpi                               1.682676                       # CPI: cycles per instruction
system.cpu.discardedOps                        414280                       # Number of ops (including micro ops) which were discarded before commit
system.cpu.dtb.accesses                             0                       # DTB accesses
system.cpu.dtb.align_faults                         0                       # Number of TLB faults due to alignment restrictions
system.cpu.dtb.domain_faults                        0                       # Number of TLB faults due to domain restrictions
system.cpu.dtb.flush_entries                        0                       # Number of entries that have been flushed from TLB
system.cpu.dtb.flush_tlb                            0                       # Number of times complete TLB was flushed
system.cpu.dtb.flush_tlb_asid                       0                       # Number of times TLB was flushed by ASID
system.cpu.dtb.flush_tlb_mva                        0                       # Number of times TLB was flushed by MVA
system.cpu.dtb.flush_tlb_mva_asid                   0                       # Number of times TLB was flushed by MVA & ASID
system.cpu.dtb.hits                                 0                       # DTB hits
system.cpu.dtb.inst_accesses                        0                       # ITB inst accesses
system.cpu.dtb.inst_hits                            0                       # ITB inst hits
system.cpu.dtb.inst_misses                          0                       # ITB inst misses
system.cpu.dtb.misses                               0                       # DTB misses
system.cpu.dtb.perms_faults                         0                       # Number of TLB faults due to permissions restrictions
system.cpu.dtb.prefetch_faults                      0                       # Number of TLB faults due to prefetch
system.cpu.dtb.read_accesses                        0                       # DTB read accesses
system.cpu.dtb.read_hits                            0                       # DTB read hits
system.cpu.dtb.read_misses                          0                       # DTB read misses
system.cpu.dtb.stage2_mmu.stage2_tlb.accesses            0                       # DTB accesses
system.cpu.dtb.stage2_mmu.stage2_tlb.align_faults            0                       # Number of TLB faults due to alignment restrictions
system.cpu.dtb.stage2_mmu.stage2_tlb.domain_faults            0                       # Number of TLB faults due to domain restrictions
system.cpu.dtb.stage2_mmu.stage2_tlb.flush_entries            0                       # Number of entries that have been flushed from TLB
system.cpu.dtb.stage2_mmu.stage2_tlb.flush_tlb            0                       # Number of times complete TLB was flushed
system.cpu.dtb.stage2_mmu.stage2_tlb.flush_tlb_asid            0                       # Number of times TLB was flushed by ASID
system.cpu.dtb.stage2_mmu.stage2_tlb.flush_tlb_mva            0                       # Number of times TLB was flushed by MVA
system.cpu.dtb.stage2_mmu.stage2_tlb.flush_tlb_mva_asid            0                       # Number of times TLB was flushed by MVA & ASID
system.cpu.dtb.stage2_mmu.stage2_tlb.hits            0                       # DTB hits
system.cpu.dtb.stage2_mmu.stage2_tlb.inst_accesses            0                       # ITB inst accesses
system.cpu.dtb.stage2_mmu.stage2_tlb.inst_hits            0                       # ITB inst hits
system.cpu.dtb.stage2_mmu.stage2_tlb.inst_misses            0                       # ITB inst misses
system.cpu.dtb.stage2_mmu.stage2_tlb.misses            0                       # DTB misses
system.cpu.dtb.stage2_mmu.stage2_tlb.perms_faults            0                       # Number of TLB faults due to permissions restrictions
system.cpu.dtb.stage2_mmu.stage2_tlb.prefetch_faults            0                       # Number of TLB faults due to prefetch
system.cpu.dtb.stage2_mmu.stage2_tlb.read_accesses            0                       # DTB read accesses
system.cpu.dtb.stage2_mmu.stage2_tlb.read_hits            0                       # DTB read hits
system.cpu.dtb.stage2_mmu.stage2_tlb.read_misses            0                       # DTB read misses
system.cpu.dtb.stage2_mmu.stage2_tlb.walker.walkRequestOrigin_Requested::Data            0                       # Table walker requests started/completed, data/inst
system.cpu.dtb.stage2_mmu.stage2_tlb.walker.walkRequestOrigin_Requested::Inst            0                       # Table walker requests started/completed, data/inst
system.cpu.dtb.stage2_mmu.stage2_tlb.walker.walkRequestOrigin_Requested::total            0                       # Table walker requests started/completed, data/inst
system.cpu.dtb.stage2_mmu.stage2_tlb.walker.walkRequestOrigin_Completed::Data            0                       # Table walker requests started/completed, data/inst
system.cpu.dtb.stage2_mmu.stage2_tlb.walker.walkRequestOrigin_Completed::Inst            0                       # Table walker requests started/completed, data/inst
system.cpu.dtb.stage2_mmu.stage2_tlb.walker.walkRequestOrigin_Completed::total            0                       # Table walker requests started/completed, data/inst
system.cpu.dtb.stage2_mmu.stage2_tlb.walker.walkRequestOrigin::total            0                       # Table walker requests started/completed, data/inst
system.cpu.dtb.stage2_mmu.stage2_tlb.walker.walks            0                       # Table walker walks requested
system.cpu.dtb.stage2_mmu.stage2_tlb.write_accesses            0                       # DTB write accesses
system.cpu.dtb.stage2_mmu.stage2_tlb.write_hits            0                       # DTB write hits
system.cpu.dtb.stage2_mmu.stage2_tlb.write_misses            0                       # DTB write misses
system.cpu.dtb.walker.walkRequestOrigin_Requested::Data            0                       # Table walker requests started/completed, data/inst
system.cpu.dtb.walker.walkRequestOrigin_Requested::Inst            0                       # Table walker requests started/completed, data/inst
system.cpu.dtb.walker.walkRequestOrigin_Requested::total            0                       # Table walker requests started/completed, data/inst
system.cpu.dtb.walker.walkRequestOrigin_Completed::Data            0                       # Table walker requests started/completed, data/inst
system.cpu.dtb.walker.walkRequestOrigin_Completed::Inst            0                       # Table walker requests started/completed, data/inst
system.cpu.dtb.walker.walkRequestOrigin_Completed::total            0                       # Table walker requests started/completed, data/inst
system.cpu.dtb.walker.walkRequestOrigin::total            0                       # Table walker requests started/completed, data/inst
system.cpu.dtb.walker.walks                         0                       # Table walker walks requested
system.cpu.dtb.write_accesses                       0                       # DTB write accesses
system.cpu.dtb.write_hits                           0                       # DTB write hits
system.cpu.dtb.write_misses                         0                       # DTB write misses
system.cpu.fetch2.amo_instructions                  0                       # Number of memory atomic instructions successfully decoded
system.cpu.fetch2.fp_instructions                   0                       # Number of floating point instructions successfully decoded
system.cpu.fetch2.int_instructions           36891934                       # Number of integer instructions successfully decoded
system.cpu.fetch2.load_instructions          48175719                       # Number of memory load instructions successfully decoded
system.cpu.fetch2.store_instructions         12286400                       # Number of memory store instructions successfully decoded
system.cpu.fetch2.vec_instructions                  0                       # Number of SIMD instructions successfully decoded
system.cpu.idleCycles                        36719112                       # Total number of cycles that the object has spent stopped
system.cpu.ipc                               0.594291                       # IPC: instructions per cycle
system.cpu.itb.accesses                             0                       # DTB accesses
system.cpu.itb.align_faults                         0                       # Number of TLB faults due to alignment restrictions
system.cpu.itb.domain_faults                        0                       # Number of TLB faults due to domain restrictions
system.cpu.itb.flush_entries                        0                       # Number of entries that have been flushed from TLB
system.cpu.itb.flush_tlb                            0                       # Number of times complete TLB was flushed
system.cpu.itb.flush_tlb_asid                       0                       # Number of times TLB was flushed by ASID
system.cpu.itb.flush_tlb_mva                        0                       # Number of times TLB was flushed by MVA
system.cpu.itb.flush_tlb_mva_asid                   0                       # Number of times TLB was flushed by MVA & ASID
system.cpu.itb.hits                                 0                       # DTB hits
system.cpu.itb.inst_accesses                        0                       # ITB inst accesses
system.cpu.itb.inst_hits                            0                       # ITB inst hits
system.cpu.itb.inst_misses                          0                       # ITB inst misses
system.cpu.itb.misses                               0                       # DTB misses
system.cpu.itb.perms_faults                         0                       # Number of TLB faults due to permissions restrictions
system.cpu.itb.prefetch_faults                      0                       # Number of TLB faults due to prefetch
system.cpu.itb.read_accesses                        0                       # DTB read accesses
system.cpu.itb.read_hits                            0                       # DTB read hits
system.cpu.itb.read_misses                          0                       # DTB read misses
system.cpu.itb.stage2_mmu.stage2_tlb.accesses            0                       # DTB accesses
system.cpu.itb.stage2_mmu.stage2_tlb.align_faults            0                       # Number of TLB faults due to alignment restrictions
system.cpu.itb.stage2_mmu.stage2_tlb.domain_faults            0                       # Number of TLB faults due to domain restrictions
system.cpu.itb.stage2_mmu.stage2_tlb.flush_entries            0                       # Number of entries that have been flushed from TLB
system.cpu.itb.stage2_mmu.stage2_tlb.flush_tlb            0                       # Number of times complete TLB was flushed
system.cpu.itb.stage2_mmu.stage2_tlb.flush_tlb_asid            0                       # Number of times TLB was flushed by ASID
system.cpu.itb.stage2_mmu.stage2_tlb.flush_tlb_mva            0                       # Number of times TLB was flushed by MVA
system.cpu.itb.stage2_mmu.stage2_tlb.flush_tlb_mva_asid            0                       # Number of times TLB was flushed by MVA & ASID
system.cpu.itb.stage2_mmu.stage2_tlb.hits            0                       # DTB hits
system.cpu.itb.stage2_mmu.stage2_tlb.inst_accesses            0                       # ITB inst accesses
system.cpu.itb.stage2_mmu.stage2_tlb.inst_hits            0                       # ITB inst hits
system.cpu.itb.stage2_mmu.stage2_tlb.inst_misses            0                       # ITB inst misses
system.cpu.itb.stage2_mmu.stage2_tlb.misses            0                       # DTB misses
system.cpu.itb.stage2_mmu.stage2_tlb.perms_faults            0                       # Number of TLB faults due to permissions restrictions
system.cpu.itb.stage2_mmu.stage2_tlb.prefetch_faults            0                       # Number of TLB faults due to prefetch
system.cpu.itb.stage2_mmu.stage2_tlb.read_accesses            0                       # DTB read accesses
system.cpu.itb.stage2_mmu.stage2_tlb.read_hits            0                       # DTB read hits
system.cpu.itb.stage2_mmu.stage2_tlb.read_misses            0                       # DTB read misses
system.cpu.itb.stage2_mmu.stage2_tlb.walker.walkRequestOrigin_Requested::Data            0                       # Table walker requests started/completed, data/inst
system.cpu.itb.stage2_mmu.stage2_tlb.walker.walkRequestOrigin_Requested::Inst            0                       # Table walker requests started/completed, data/inst
system.cpu.itb.stage2_mmu.stage2_tlb.walker.walkRequestOrigin_Requested::total            0                       # Table walker requests started/completed, data/inst
system.cpu.itb.stage2_mmu.stage2_tlb.walker.walkRequestOrigin_Completed::Data            0                       # Table walker requests started/completed, data/inst
system.cpu.itb.stage2_mmu.stage2_tlb.walker.walkRequestOrigin_Completed::Inst            0                       # Table walker requests started/completed, data/inst
system.cpu.itb.stage2_mmu.stage2_tlb.walker.walkRequestOrigin_Completed::total            0                       # Table walker requests started/completed, data/inst
system.cpu.itb.stage2_mmu.stage2_tlb.walker.walkRequestOrigin::total            0                       # Table walker requests started/completed, data/inst
system.cpu.itb.stage2_mmu.stage2_tlb.walker.walks            0                       # Table walker walks requested
system.cpu.itb.stage2_mmu.stage2_tlb.write_accesses            0                       # DTB write accesses
system.cpu.itb.stage2_mmu.stage2_tlb.write_hits            0                       # DTB write hits
system.cpu.itb.stage2_mmu.stage2_tlb.write_misses            0                       # DTB write misses
system.cpu.itb.walker.walkRequestOrigin_Requested::Data            0                       # Table walker requests started/completed, data/inst
system.cpu.itb.walker.walkRequestOrigin_Requested::Inst            0                       # Table walker requests started/completed, data/inst
system.cpu.itb.walker.walkRequestOrigin_Requested::total            0                       # Table walker requests started/completed, data/inst
system.cpu.itb.walker.walkRequestOrigin_Completed::Data            0                       # Table walker requests started/completed, data/inst
system.cpu.itb.walker.walkRequestOrigin_Completed::Inst            0                       # Table walker requests started/completed, data/inst
system.cpu.itb.walker.walkRequestOrigin_Completed::total            0                       # Table walker requests started/completed, data/inst
system.cpu.itb.walker.walkRequestOrigin::total            0                       # Table walker requests started/completed, data/inst
system.cpu.itb.walker.walks                         0                       # Table walker walks requested
system.cpu.itb.write_accesses                       0                       # DTB write accesses
system.cpu.itb.write_hits                           0                       # DTB write hits
system.cpu.itb.write_misses                         0                       # DTB write misses
system.cpu.numCycles                        168267597                       # number of cpu cycles simulated
system.cpu.numFetchSuspends                         0                       # Number of times Execute suspended instruction fetching
system.cpu.numWorkItemsCompleted                    0                       # number of work items this cpu completed
system.cpu.numWorkItemsStarted                      0                       # number of work items this cpu started
system.cpu.op_class_0::No_OpClass                   0      0.00%      0.00% # Class of committed instruction
system.cpu.op_class_0::IntAlu                41315674     40.78%     40.78% # Class of committed instruction
system.cpu.op_class_0::IntMult                    240      0.00%     40.78% # Class of committed instruction
system.cpu.op_class_0::IntDiv                       0      0.00%     40.78% # Class of committed instruction
system.cpu.op_class_0::FloatAdd                     0      0.00%     40.78% # Class of committed instruction
system.cpu.op_class_0::FloatCmp                     0      0.00%     40.78% # Class of committed instruction
system.cpu.op_class_0::FloatCvt                     0      0.00%     40.78% # Class of committed instruction
system.cpu.op_class_0::FloatMult                    0      0.00%     40.78% # Class of committed instruction
system.cpu.op_class_0::FloatMultAcc                 0      0.00%     40.78% # Class of committed instruction
system.cpu.op_class_0::FloatDiv                     0      0.00%     40.78% # Class of committed instruction
system.cpu.op_class_0::FloatMisc                    0      0.00%     40.78% # Class of committed instruction
system.cpu.op_class_0::FloatSqrt                    0      0.00%     40.78% # Class of committed instruction
system.cpu.op_class_0::SimdAdd                      0      0.00%     40.78% # Class of committed instruction
system.cpu.op_class_0::SimdAddAcc                   0      0.00%     40.78% # Class of committed instruction
system.cpu.op_class_0::SimdAlu                      0      0.00%     40.78% # Class of committed instruction
system.cpu.op_class_0::SimdCmp                      0      0.00%     40.78% # Class of committed instruction
system.cpu.op_class_0::SimdCvt                      0      0.00%     40.78% # Class of committed instruction
system.cpu.op_class_0::SimdMisc                     0      0.00%     40.78% # Class of committed instruction
system.cpu.op_class_0::SimdMult                     0      0.00%     40.78% # Class of committed instruction
system.cpu.op_class_0::SimdMultAcc                  0      0.00%     40.78% # Class of committed instruction
system.cpu.op_class_0::SimdShift                    0      0.00%     40.78% # Class of committed instruction
system.cpu.op_class_0::SimdShiftAcc                 0      0.00%     40.78% # Class of committed instruction
system.cpu.op_class_0::SimdDiv                      0      0.00%     40.78% # Class of committed instruction
system.cpu.op_class_0::SimdSqrt                     0      0.00%     40.78% # Class of committed instruction
system.cpu.op_class_0::SimdFloatAdd                 0      0.00%     40.78% # Class of committed instruction
system.cpu.op_class_0::SimdFloatAlu                 0      0.00%     40.78% # Class of committed instruction
system.cpu.op_class_0::SimdFloatCmp                 0      0.00%     40.78% # Class of committed instruction
system.cpu.op_class_0::SimdFloatCvt                 0      0.00%     40.78% # Class of committed instruction
system.cpu.op_class_0::SimdFloatDiv                 0      0.00%     40.78% # Class of committed instruction
system.cpu.op_class_0::SimdFloatMisc               18      0.00%     40.78% # Class of committed instruction
system.cpu.op_class_0::SimdFloatMult                0      0.00%     40.78% # Class of committed instruction
system.cpu.op_class_0::SimdFloatMultAcc             0      0.00%     40.78% # Class of committed instruction
system.cpu.op_class_0::SimdFloatSqrt                0      0.00%     40.78% # Class of committed instruction
system.cpu.op_class_0::SimdReduceAdd                0      0.00%     40.78% # Class of committed instruction
system.cpu.op_class_0::SimdReduceAlu                0      0.00%     40.78% # Class of committed instruction
system.cpu.op_class_0::SimdReduceCmp                0      0.00%     40.78% # Class of committed instruction
system.cpu.op_class_0::SimdFloatReduceAdd            0      0.00%     40.78% # Class of committed instruction
system.cpu.op_class_0::SimdFloatReduceCmp            0      0.00%     40.78% # Class of committed instruction
system.cpu.op_class_0::SimdAes                      0      0.00%     40.78% # Class of committed instruction
system.cpu.op_class_0::SimdAesMix                   0      0.00%     40.78% # Class of committed instruction
system.cpu.op_class_0::SimdSha1Hash                 0      0.00%     40.78% # Class of committed instruction
system.cpu.op_class_0::SimdSha1Hash2                0      0.00%     40.78% # Class of committed instruction
system.cpu.op_class_0::SimdSha256Hash               0      0.00%     40.78% # Class of committed instruction
system.cpu.op_class_0::SimdSha256Hash2              0      0.00%     40.78% # Class of committed instruction
system.cpu.op_class_0::SimdShaSigma2                0      0.00%     40.78% # Class of committed instruction
system.cpu.op_class_0::SimdShaSigma3                0      0.00%     40.78% # Class of committed instruction
system.cpu.op_class_0::SimdPredAlu                  0      0.00%     40.78% # Class of committed instruction
system.cpu.op_class_0::MemRead               47190316     46.58%     87.36% # Class of committed instruction
system.cpu.op_class_0::MemWrite              12809011     12.64%    100.00% # Class of committed instruction
system.cpu.op_class_0::FloatMemRead                 0      0.00%    100.00% # Class of committed instruction
system.cpu.op_class_0::FloatMemWrite                0      0.00%    100.00% # Class of committed instruction
system.cpu.op_class_0::IprAccess                    0      0.00%    100.00% # Class of committed instruction
system.cpu.op_class_0::InstPrefetch                 0      0.00%    100.00% # Class of committed instruction
system.cpu.op_class_0::total                101315259                       # Class of committed instruction
system.cpu.tickCycles                       131548485                       # Number of cycles that the object actually ticked
system.cpu.workload.numSyscalls                    84                       # Number of system calls
system.membus.snoop_filter.hit_multi_requests            0                       # Number of requests hitting in the snoop filter with multiple (>1) holders of the requested data.
system.membus.snoop_filter.hit_multi_snoops            0                       # Number of snoops hitting in the snoop filter with multiple (>1) holders of the requested data.
system.membus.snoop_filter.hit_single_requests       174899                       # Number of requests hitting in the snoop filter with a single holder of the requested data.
system.membus.snoop_filter.hit_single_snoops            0                       # Number of snoops hitting in the snoop filter with a single holder of the requested data.
system.membus.snoop_filter.tot_requests        382882                       # Total number of requests made to the snoop filter.
system.membus.snoop_filter.tot_snoops               0                       # Total number of snoops made to the snoop filter.
system.tol2bus.snoop_filter.hit_multi_requests          497                       # Number of requests hitting in the snoop filter with multiple (>1) holders of the requested data.
system.tol2bus.snoop_filter.hit_multi_snoops            3                       # Number of snoops hitting in the snoop filter with multiple (>1) holders of the requested data.
system.tol2bus.snoop_filter.hit_single_requests       784173                       # Number of requests hitting in the snoop filter with a single holder of the requested data.
system.tol2bus.snoop_filter.hit_single_snoops          601                       # Number of snoops hitting in the snoop filter with a single holder of the requested data.
system.tol2bus.snoop_filter.tot_requests      1569775                       # Total number of requests made to the snoop filter.
system.tol2bus.snoop_filter.tot_snoops            604                       # Total number of snoops made to the snoop filter.
system.membus.pwrStateResidencyTicks::UNDEFINED  84133798500                       # Cumulative time (in ticks) in various power states
system.membus.trans_dist::ReadResp              67411                       # Transaction distribution
system.membus.trans_dist::WritebackDirty       117467                       # Transaction distribution
system.membus.trans_dist::CleanEvict            57421                       # Transaction distribution
system.membus.trans_dist::ReadExReq            140583                       # Transaction distribution
system.membus.trans_dist::ReadExResp           140583                       # Transaction distribution
system.membus.trans_dist::ReadSharedReq         67411                       # Transaction distribution
system.membus.pkt_count_system.l2.mem_side::system.mem_ctrls.port       590876                       # Packet count per connected master and slave (bytes)
system.membus.pkt_count::total                 590876                       # Packet count per connected master and slave (bytes)
system.membus.pkt_size_system.l2.mem_side::system.mem_ctrls.port     20829504                       # Cumulative packet size per connected master and slave (bytes)
system.membus.pkt_size::total                20829504                       # Cumulative packet size per connected master and slave (bytes)
system.membus.snoops                                0                       # Total snoops (count)
system.membus.snoopTraffic                          0                       # Total snoop traffic (bytes)
system.membus.snoop_fanout::samples            207994                       # Request fanout histogram
system.membus.snoop_fanout::mean                    0                       # Request fanout histogram
system.membus.snoop_fanout::stdev                   0                       # Request fanout histogram
system.membus.snoop_fanout::underflows              0      0.00%      0.00% # Request fanout histogram
system.membus.snoop_fanout::0                  207994    100.00%    100.00% # Request fanout histogram
system.membus.snoop_fanout::1                       0      0.00%    100.00% # Request fanout histogram
system.membus.snoop_fanout::overflows               0      0.00%    100.00% # Request fanout histogram
system.membus.snoop_fanout::min_value               0                       # Request fanout histogram
system.membus.snoop_fanout::max_value               0                       # Request fanout histogram
system.membus.snoop_fanout::total              207994                       # Request fanout histogram
system.membus.respLayer1.occupancy         1111620000                       # Layer occupancy (ticks)
system.membus.respLayer1.utilization              1.3                       # Layer utilization (%)
system.membus.reqLayer0.occupancy           884708000                       # Layer occupancy (ticks)
system.membus.reqLayer0.utilization               1.1                       # Layer utilization (%)
system.tol2bus.pwrStateResidencyTicks::UNDEFINED  84133798500                       # Cumulative time (in ticks) in various power states
system.tol2bus.trans_dist::ReadResp            478674                       # Transaction distribution
system.tol2bus.trans_dist::WritebackDirty       801479                       # Transaction distribution
system.tol2bus.trans_dist::WritebackClean         4768                       # Transaction distribution
system.tol2bus.trans_dist::CleanEvict          153414                       # Transaction distribution
system.tol2bus.trans_dist::ReadExReq           306931                       # Transaction distribution
system.tol2bus.trans_dist::ReadExResp          306931                       # Transaction distribution
system.tol2bus.trans_dist::ReadCleanReq          5179                       # Transaction distribution
system.tol2bus.trans_dist::ReadSharedReq       473495                       # Transaction distribution
system.tol2bus.pkt_count_system.cpu.icache.mem_side::system.l2.cpu_side        15126                       # Packet count per connected master and slave (bytes)
system.tol2bus.pkt_count_system.cpu.dcache.mem_side::system.l2.cpu_side      2340254                       # Packet count per connected master and slave (bytes)
system.tol2bus.pkt_count::total               2355380                       # Packet count per connected master and slave (bytes)
system.tol2bus.pkt_size_system.cpu.icache.mem_side::system.l2.cpu_side       636608                       # Cumulative packet size per connected master and slave (bytes)
system.tol2bus.pkt_size_system.cpu.dcache.mem_side::system.l2.cpu_side     93724032                       # Cumulative packet size per connected master and slave (bytes)
system.tol2bus.pkt_size::total               94360640                       # Cumulative packet size per connected master and slave (bytes)
system.tol2bus.snoops                          175491                       # Total snoops (count)
system.tol2bus.snoopTraffic                   7517888                       # Total snoop traffic (bytes)
system.tol2bus.snoop_fanout::samples           961096                       # Request fanout histogram
system.tol2bus.snoop_fanout::mean            0.001152                       # Request fanout histogram
system.tol2bus.snoop_fanout::stdev           0.034011                       # Request fanout histogram
system.tol2bus.snoop_fanout::underflows             0      0.00%      0.00% # Request fanout histogram
system.tol2bus.snoop_fanout::0                 959992     99.89%     99.89% # Request fanout histogram
system.tol2bus.snoop_fanout::1                   1101      0.11%    100.00% # Request fanout histogram
system.tol2bus.snoop_fanout::2                      3      0.00%    100.00% # Request fanout histogram
system.tol2bus.snoop_fanout::overflows              0      0.00%    100.00% # Request fanout histogram
system.tol2bus.snoop_fanout::min_value              0                       # Request fanout histogram
system.tol2bus.snoop_fanout::max_value              2                       # Request fanout histogram
system.tol2bus.snoop_fanout::total             961096                       # Request fanout histogram
system.tol2bus.reqLayer0.occupancy         1473667500                       # Layer occupancy (ticks)
system.tol2bus.reqLayer0.utilization              1.8                       # Layer utilization (%)
system.tol2bus.respLayer1.occupancy        1170643491                       # Layer occupancy (ticks)
system.tol2bus.respLayer1.utilization             1.4                       # Layer utilization (%)
system.tol2bus.respLayer0.occupancy           7768999                       # Layer occupancy (ticks)
system.tol2bus.respLayer0.utilization             0.0                       # Layer utilization (%)
system.voltage_domain.voltage                       1                       # Voltage in Volts
system.clk_domain.clock                          1000                       # Clock period in ticks
system.l2.pwrStateResidencyTicks::UNDEFINED  84133798500                       # Cumulative time (in ticks) in various power states
system.l2.demand_hits::.cpu.inst                 4328                       # number of demand (read+write) hits
system.l2.demand_hits::.cpu.data               573275                       # number of demand (read+write) hits
system.l2.demand_hits::total                   577603                       # number of demand (read+write) hits
system.l2.overall_hits::.cpu.inst                4328                       # number of overall hits
system.l2.overall_hits::.cpu.data              573275                       # number of overall hits
system.l2.overall_hits::total                  577603                       # number of overall hits
system.l2.demand_misses::.cpu.inst                851                       # number of demand (read+write) misses
system.l2.demand_misses::.cpu.data             207151                       # number of demand (read+write) misses
system.l2.demand_misses::total                 208002                       # number of demand (read+write) misses
system.l2.overall_misses::.cpu.inst               851                       # number of overall misses
system.l2.overall_misses::.cpu.data            207151                       # number of overall misses
system.l2.overall_misses::total                208002                       # number of overall misses
system.l2.demand_miss_latency::.cpu.inst     67061000                       # number of demand (read+write) miss cycles
system.l2.demand_miss_latency::.cpu.data  17227203500                       # number of demand (read+write) miss cycles
system.l2.demand_miss_latency::total      17294264500                       # number of demand (read+write) miss cycles
system.l2.overall_miss_latency::.cpu.inst     67061000                       # number of overall miss cycles
system.l2.overall_miss_latency::.cpu.data  17227203500                       # number of overall miss cycles
system.l2.overall_miss_latency::total     17294264500                       # number of overall miss cycles
system.l2.demand_accesses::.cpu.inst             5179                       # number of demand (read+write) accesses
system.l2.demand_accesses::.cpu.data           780426                       # number of demand (read+write) accesses
system.l2.demand_accesses::total               785605                       # number of demand (read+write) accesses
system.l2.overall_accesses::.cpu.inst            5179                       # number of overall (read+write) accesses
system.l2.overall_accesses::.cpu.data          780426                       # number of overall (read+write) accesses
system.l2.overall_accesses::total              785605                       # number of overall (read+write) accesses
system.l2.demand_miss_rate::.cpu.inst        0.164317                       # miss rate for demand accesses
system.l2.demand_miss_rate::.cpu.data        0.265433                       # miss rate for demand accesses
system.l2.demand_miss_rate::total            0.264767                       # miss rate for demand accesses
system.l2.overall_miss_rate::.cpu.inst       0.164317                       # miss rate for overall accesses
system.l2.overall_miss_rate::.cpu.data       0.265433                       # miss rate for overall accesses
system.l2.overall_miss_rate::total           0.264767                       # miss rate for overall accesses
system.l2.demand_avg_miss_latency::.cpu.inst 78802.585194                       # average overall miss latency
system.l2.demand_avg_miss_latency::.cpu.data 83162.540852                       # average overall miss latency
system.l2.demand_avg_miss_latency::total 83144.702936                       # average overall miss latency
system.l2.overall_avg_miss_latency::.cpu.inst 78802.585194                       # average overall miss latency
system.l2.overall_avg_miss_latency::.cpu.data 83162.540852                       # average overall miss latency
system.l2.overall_avg_miss_latency::total 83144.702936                       # average overall miss latency
system.l2.blocked_cycles::no_mshrs                  0                       # number of cycles access was blocked
system.l2.blocked_cycles::no_targets                0                       # number of cycles access was blocked
system.l2.blocked::no_mshrs                         0                       # number of cycles access was blocked
system.l2.blocked::no_targets                       0                       # number of cycles access was blocked
system.l2.avg_blocked_cycles::no_mshrs            nan                       # average number of cycles each access was blocked
system.l2.avg_blocked_cycles::no_targets          nan                       # average number of cycles each access was blocked
system.l2.writebacks::.writebacks              117467                       # number of writebacks
system.l2.writebacks::total                    117467                       # number of writebacks
system.l2.demand_mshr_hits::.cpu.data               8                       # number of demand (read+write) MSHR hits
system.l2.demand_mshr_hits::total                   8                       # number of demand (read+write) MSHR hits
system.l2.overall_mshr_hits::.cpu.data              8                       # number of overall MSHR hits
system.l2.overall_mshr_hits::total                  8                       # number of overall MSHR hits
system.l2.demand_mshr_misses::.cpu.inst           851                       # number of demand (read+write) MSHR misses
system.l2.demand_mshr_misses::.cpu.data        207143                       # number of demand (read+write) MSHR misses
system.l2.demand_mshr_misses::total            207994                       # number of demand (read+write) MSHR misses
system.l2.overall_mshr_misses::.cpu.inst          851                       # number of overall MSHR misses
system.l2.overall_mshr_misses::.cpu.data       207143                       # number of overall MSHR misses
system.l2.overall_mshr_misses::total           207994                       # number of overall MSHR misses
system.l2.demand_mshr_miss_latency::.cpu.inst     58551000                       # number of demand (read+write) MSHR miss cycles
system.l2.demand_mshr_miss_latency::.cpu.data  15155224000                       # number of demand (read+write) MSHR miss cycles
system.l2.demand_mshr_miss_latency::total  15213775000                       # number of demand (read+write) MSHR miss cycles
system.l2.overall_mshr_miss_latency::.cpu.inst     58551000                       # number of overall MSHR miss cycles
system.l2.overall_mshr_miss_latency::.cpu.data  15155224000                       # number of overall MSHR miss cycles
system.l2.overall_mshr_miss_latency::total  15213775000                       # number of overall MSHR miss cycles
system.l2.demand_mshr_miss_rate::.cpu.inst     0.164317                       # mshr miss rate for demand accesses
system.l2.demand_mshr_miss_rate::.cpu.data     0.265423                       # mshr miss rate for demand accesses
system.l2.demand_mshr_miss_rate::total       0.264756                       # mshr miss rate for demand accesses
system.l2.overall_mshr_miss_rate::.cpu.inst     0.164317                       # mshr miss rate for overall accesses
system.l2.overall_mshr_miss_rate::.cpu.data     0.265423                       # mshr miss rate for overall accesses
system.l2.overall_mshr_miss_rate::total      0.264756                       # mshr miss rate for overall accesses
system.l2.demand_avg_mshr_miss_latency::.cpu.inst 68802.585194                       # average overall mshr miss latency
system.l2.demand_avg_mshr_miss_latency::.cpu.data 73163.099888                       # average overall mshr miss latency
system.l2.demand_avg_mshr_miss_latency::total 73145.258998                       # average overall mshr miss latency
system.l2.overall_avg_mshr_miss_latency::.cpu.inst 68802.585194                       # average overall mshr miss latency
system.l2.overall_avg_mshr_miss_latency::.cpu.data 73163.099888                       # average overall mshr miss latency
system.l2.overall_avg_mshr_miss_latency::total 73145.258998                       # average overall mshr miss latency
system.l2.replacements                         175491                       # number of replacements
system.l2.WritebackDirty_hits::.writebacks       684012                       # number of WritebackDirty hits
system.l2.WritebackDirty_hits::total           684012                       # number of WritebackDirty hits
system.l2.WritebackDirty_accesses::.writebacks       684012                       # number of WritebackDirty accesses(hits+misses)
system.l2.WritebackDirty_accesses::total       684012                       # number of WritebackDirty accesses(hits+misses)
system.l2.WritebackClean_hits::.writebacks         4525                       # number of WritebackClean hits
system.l2.WritebackClean_hits::total             4525                       # number of WritebackClean hits
system.l2.WritebackClean_accesses::.writebacks         4525                       # number of WritebackClean accesses(hits+misses)
system.l2.WritebackClean_accesses::total         4525                       # number of WritebackClean accesses(hits+misses)
system.l2.CleanEvict_mshr_misses::.writebacks            1                       # number of CleanEvict MSHR misses
system.l2.CleanEvict_mshr_misses::total             1                       # number of CleanEvict MSHR misses
system.l2.CleanEvict_mshr_miss_rate::.writebacks          inf                       # mshr miss rate for CleanEvict accesses
system.l2.CleanEvict_mshr_miss_rate::total          inf                       # mshr miss rate for CleanEvict accesses
system.l2.ReadExReq_hits::.cpu.data            166348                       # number of ReadExReq hits
system.l2.ReadExReq_hits::total                166348                       # number of ReadExReq hits
system.l2.ReadExReq_misses::.cpu.data          140583                       # number of ReadExReq misses
system.l2.ReadExReq_misses::total              140583                       # number of ReadExReq misses
system.l2.ReadExReq_miss_latency::.cpu.data  11956887000                       # number of ReadExReq miss cycles
system.l2.ReadExReq_miss_latency::total   11956887000                       # number of ReadExReq miss cycles
system.l2.ReadExReq_accesses::.cpu.data        306931                       # number of ReadExReq accesses(hits+misses)
system.l2.ReadExReq_accesses::total            306931                       # number of ReadExReq accesses(hits+misses)
system.l2.ReadExReq_miss_rate::.cpu.data     0.458028                       # miss rate for ReadExReq accesses
system.l2.ReadExReq_miss_rate::total         0.458028                       # miss rate for ReadExReq accesses
system.l2.ReadExReq_avg_miss_latency::.cpu.data 85052.154243                       # average ReadExReq miss latency
system.l2.ReadExReq_avg_miss_latency::total 85052.154243                       # average ReadExReq miss latency
system.l2.ReadExReq_mshr_misses::.cpu.data       140583                       # number of ReadExReq MSHR misses
system.l2.ReadExReq_mshr_misses::total         140583                       # number of ReadExReq MSHR misses
system.l2.ReadExReq_mshr_miss_latency::.cpu.data  10551057000                       # number of ReadExReq MSHR miss cycles
system.l2.ReadExReq_mshr_miss_latency::total  10551057000                       # number of ReadExReq MSHR miss cycles
system.l2.ReadExReq_mshr_miss_rate::.cpu.data     0.458028                       # mshr miss rate for ReadExReq accesses
system.l2.ReadExReq_mshr_miss_rate::total     0.458028                       # mshr miss rate for ReadExReq accesses
system.l2.ReadExReq_avg_mshr_miss_latency::.cpu.data 75052.154243                       # average ReadExReq mshr miss latency
system.l2.ReadExReq_avg_mshr_miss_latency::total 75052.154243                       # average ReadExReq mshr miss latency
system.l2.ReadCleanReq_hits::.cpu.inst           4328                       # number of ReadCleanReq hits
system.l2.ReadCleanReq_hits::total               4328                       # number of ReadCleanReq hits
system.l2.ReadCleanReq_misses::.cpu.inst          851                       # number of ReadCleanReq misses
system.l2.ReadCleanReq_misses::total              851                       # number of ReadCleanReq misses
system.l2.ReadCleanReq_miss_latency::.cpu.inst     67061000                       # number of ReadCleanReq miss cycles
system.l2.ReadCleanReq_miss_latency::total     67061000                       # number of ReadCleanReq miss cycles
system.l2.ReadCleanReq_accesses::.cpu.inst         5179                       # number of ReadCleanReq accesses(hits+misses)
system.l2.ReadCleanReq_accesses::total           5179                       # number of ReadCleanReq accesses(hits+misses)
system.l2.ReadCleanReq_miss_rate::.cpu.inst     0.164317                       # miss rate for ReadCleanReq accesses
system.l2.ReadCleanReq_miss_rate::total      0.164317                       # miss rate for ReadCleanReq accesses
system.l2.ReadCleanReq_avg_miss_latency::.cpu.inst 78802.585194                       # average ReadCleanReq miss latency
system.l2.ReadCleanReq_avg_miss_latency::total 78802.585194                       # average ReadCleanReq miss latency
system.l2.ReadCleanReq_mshr_misses::.cpu.inst          851                       # number of ReadCleanReq MSHR misses
system.l2.ReadCleanReq_mshr_misses::total          851                       # number of ReadCleanReq MSHR misses
system.l2.ReadCleanReq_mshr_miss_latency::.cpu.inst     58551000                       # number of ReadCleanReq MSHR miss cycles
system.l2.ReadCleanReq_mshr_miss_latency::total     58551000                       # number of ReadCleanReq MSHR miss cycles
system.l2.ReadCleanReq_mshr_miss_rate::.cpu.inst     0.164317                       # mshr miss rate for ReadCleanReq accesses
system.l2.ReadCleanReq_mshr_miss_rate::total     0.164317                       # mshr miss rate for ReadCleanReq accesses
system.l2.ReadCleanReq_avg_mshr_miss_latency::.cpu.inst 68802.585194                       # average ReadCleanReq mshr miss latency
system.l2.ReadCleanReq_avg_mshr_miss_latency::total 68802.585194                       # average ReadCleanReq mshr miss latency
system.l2.ReadSharedReq_hits::.cpu.data        406927                       # number of ReadSharedReq hits
system.l2.ReadSharedReq_hits::total            406927                       # number of ReadSharedReq hits
system.l2.ReadSharedReq_misses::.cpu.data        66568                       # number of ReadSharedReq misses
system.l2.ReadSharedReq_misses::total           66568                       # number of ReadSharedReq misses
system.l2.ReadSharedReq_miss_latency::.cpu.data   5270316500                       # number of ReadSharedReq miss cycles
system.l2.ReadSharedReq_miss_latency::total   5270316500                       # number of ReadSharedReq miss cycles
system.l2.ReadSharedReq_accesses::.cpu.data       473495                       # number of ReadSharedReq accesses(hits+misses)
system.l2.ReadSharedReq_accesses::total        473495                       # number of ReadSharedReq accesses(hits+misses)
system.l2.ReadSharedReq_miss_rate::.cpu.data     0.140589                       # miss rate for ReadSharedReq accesses
system.l2.ReadSharedReq_miss_rate::total     0.140589                       # miss rate for ReadSharedReq accesses
system.l2.ReadSharedReq_avg_miss_latency::.cpu.data 79171.921944                       # average ReadSharedReq miss latency
system.l2.ReadSharedReq_avg_miss_latency::total 79171.921944                       # average ReadSharedReq miss latency
system.l2.ReadSharedReq_mshr_hits::.cpu.data            8                       # number of ReadSharedReq MSHR hits
system.l2.ReadSharedReq_mshr_hits::total            8                       # number of ReadSharedReq MSHR hits
system.l2.ReadSharedReq_mshr_misses::.cpu.data        66560                       # number of ReadSharedReq MSHR misses
system.l2.ReadSharedReq_mshr_misses::total        66560                       # number of ReadSharedReq MSHR misses
system.l2.ReadSharedReq_mshr_miss_latency::.cpu.data   4604167000                       # number of ReadSharedReq MSHR miss cycles
system.l2.ReadSharedReq_mshr_miss_latency::total   4604167000                       # number of ReadSharedReq MSHR miss cycles
system.l2.ReadSharedReq_mshr_miss_rate::.cpu.data     0.140572                       # mshr miss rate for ReadSharedReq accesses
system.l2.ReadSharedReq_mshr_miss_rate::total     0.140572                       # mshr miss rate for ReadSharedReq accesses
system.l2.ReadSharedReq_avg_mshr_miss_latency::.cpu.data 69173.182091                       # average ReadSharedReq mshr miss latency
system.l2.ReadSharedReq_avg_mshr_miss_latency::total 69173.182091                       # average ReadSharedReq mshr miss latency
system.l2.tags.pwrStateResidencyTicks::UNDEFINED  84133798500                       # Cumulative time (in ticks) in various power states
system.l2.tags.tagsinuse                 31927.844159                       # Cycle average of tags in use
system.l2.tags.total_refs                     1569269                       # Total number of references to valid blocks.
system.l2.tags.sampled_refs                    208259                       # Sample count of references to valid blocks.
system.l2.tags.avg_refs                      7.535180                       # Average number of references to valid blocks.
system.l2.tags.warmup_cycle                     77000                       # Cycle when the warmup percentage was hit.
system.l2.tags.occ_blocks::.writebacks      82.783143                       # Average occupied blocks per requestor
system.l2.tags.occ_blocks::.cpu.inst       128.041868                       # Average occupied blocks per requestor
system.l2.tags.occ_blocks::.cpu.data     31717.019148                       # Average occupied blocks per requestor
system.l2.tags.occ_percent::.writebacks      0.002526                       # Average percentage of cache occupancy
system.l2.tags.occ_percent::.cpu.inst        0.003908                       # Average percentage of cache occupancy
system.l2.tags.occ_percent::.cpu.data        0.967927                       # Average percentage of cache occupancy
system.l2.tags.occ_percent::total            0.974360                       # Average percentage of cache occupancy
system.l2.tags.occ_task_id_blocks::1024         32768                       # Occupied blocks per task id
system.l2.tags.age_task_id_blocks_1024::0           15                       # Occupied blocks per task id
system.l2.tags.age_task_id_blocks_1024::1           97                       # Occupied blocks per task id
system.l2.tags.age_task_id_blocks_1024::2          689                       # Occupied blocks per task id
system.l2.tags.age_task_id_blocks_1024::3         9384                       # Occupied blocks per task id
system.l2.tags.age_task_id_blocks_1024::4        22583                       # Occupied blocks per task id
system.l2.tags.occ_task_id_percent::1024            1                       # Percentage of cache occupancy per task id
system.l2.tags.tag_accesses                  12762483                       # Number of tag accesses
system.l2.tags.data_accesses                 12762483                       # Number of data accesses
system.cpu_voltage_domain.voltage                   1                       # Voltage in Volts
system.mem_ctrls.pwrStateResidencyTicks::UNDEFINED  84133798500                       # Cumulative time (in ticks) in various power states
system.mem_ctrls.bytes_read::.cpu.inst          54464                       # Number of bytes read from this memory
system.mem_ctrls.bytes_read::.cpu.data       13257152                       # Number of bytes read from this memory
system.mem_ctrls.bytes_read::total           13311616                       # Number of bytes read from this memory
system.mem_ctrls.bytes_inst_read::.cpu.inst        54464                       # Number of instructions bytes read from this memory
system.mem_ctrls.bytes_inst_read::total         54464                       # Number of instructions bytes read from this memory
system.mem_ctrls.bytes_written::.writebacks      7517888                       # Number of bytes written to this memory
system.mem_ctrls.bytes_written::total         7517888                       # Number of bytes written to this memory
system.mem_ctrls.num_reads::.cpu.inst             851                       # Number of read requests responded to by this memory
system.mem_ctrls.num_reads::.cpu.data          207143                       # Number of read requests responded to by this memory
system.mem_ctrls.num_reads::total              207994                       # Number of read requests responded to by this memory
system.mem_ctrls.num_writes::.writebacks       117467                       # Number of write requests responded to by this memory
system.mem_ctrls.num_writes::total             117467                       # Number of write requests responded to by this memory
system.mem_ctrls.bw_read::.cpu.inst            647350                       # Total read bandwidth from this memory (bytes/s)
system.mem_ctrls.bw_read::.cpu.data         157572251                       # Total read bandwidth from this memory (bytes/s)
system.mem_ctrls.bw_read::total             158219601                       # Total read bandwidth from this memory (bytes/s)
system.mem_ctrls.bw_inst_read::.cpu.inst       647350                       # Instruction read bandwidth from this memory (bytes/s)
system.mem_ctrls.bw_inst_read::total           647350                       # Instruction read bandwidth from this memory (bytes/s)
system.mem_ctrls.bw_write::.writebacks       89356336                       # Write bandwidth from this memory (bytes/s)
system.mem_ctrls.bw_write::total             89356336                       # Write bandwidth from this memory (bytes/s)
system.mem_ctrls.bw_total::.writebacks       89356336                       # Total bandwidth to/from this memory (bytes/s)
system.mem_ctrls.bw_total::.cpu.inst           647350                       # Total bandwidth to/from this memory (bytes/s)
system.mem_ctrls.bw_total::.cpu.data        157572251                       # Total bandwidth to/from this memory (bytes/s)
system.mem_ctrls.bw_total::total            247575937                       # Total bandwidth to/from this memory (bytes/s)
system.mem_ctrls.avgPriority_.writebacks::samples    117467.00                       # Average QoS priority value for accepted requests
system.mem_ctrls.avgPriority_.cpu.inst::samples       851.00                       # Average QoS priority value for accepted requests
system.mem_ctrls.avgPriority_.cpu.data::samples    207104.00                       # Average QoS priority value for accepted requests
system.mem_ctrls.priorityMinLatency      0.000000018750                       # per QoS priority minimum request to response latency (s)
system.mem_ctrls.priorityMaxLatency      0.002273236500                       # per QoS priority maximum request to response latency (s)
system.mem_ctrls.numReadWriteTurnArounds         7027                       # Number of turnarounds from READ to WRITE
system.mem_ctrls.numWriteReadTurnArounds         7027                       # Number of turnarounds from WRITE to READ
system.mem_ctrls.numStayReadState              543955                       # Number of times bus staying in READ state
system.mem_ctrls.numStayWriteState             110570                       # Number of times bus staying in WRITE state
system.mem_ctrls.readReqs                      207994                       # Number of read requests accepted
system.mem_ctrls.writeReqs                     117467                       # Number of write requests accepted
system.mem_ctrls.readBursts                    207994                       # Number of DRAM read bursts, including those serviced by the write queue
system.mem_ctrls.writeBursts                   117467                       # Number of DRAM write bursts, including those merged in the write queue
system.mem_ctrls.servicedByWrQ                     39                       # Number of DRAM read bursts serviced by the write queue
system.mem_ctrls.mergedWrBursts                     0                       # Number of DRAM write bursts merged with an existing one
system.mem_ctrls.neitherReadNorWriteReqs            0                       # Number of requests that are neither read nor write
system.mem_ctrls.perBankRdBursts::0             13181                       # Per bank write bursts
system.mem_ctrls.perBankRdBursts::1             13134                       # Per bank write bursts
system.mem_ctrls.perBankRdBursts::2             13266                       # Per bank write bursts
system.mem_ctrls.perBankRdBursts::3             13083                       # Per bank write bursts
system.mem_ctrls.perBankRdBursts::4             13211                       # Per bank write bursts
system.mem_ctrls.perBankRdBursts::5             12921                       # Per bank write bursts
system.mem_ctrls.perBankRdBursts::6             12884                       # Per bank write bursts
system.mem_ctrls.perBankRdBursts::7             12654                       # Per bank write bursts
system.mem_ctrls.perBankRdBursts::8             12823                       # Per bank write bursts
system.mem_ctrls.perBankRdBursts::9             12959                       # Per bank write bursts
system.mem_ctrls.perBankRdBursts::10            12825                       # Per bank write bursts
system.mem_ctrls.perBankRdBursts::11            12839                       # Per bank write bursts
system.mem_ctrls.perBankRdBursts::12            12811                       # Per bank write bursts
system.mem_ctrls.perBankRdBursts::13            12963                       # Per bank write bursts
system.mem_ctrls.perBankRdBursts::14            13310                       # Per bank write bursts
system.mem_ctrls.perBankRdBursts::15            13091                       # Per bank write bursts
system.mem_ctrls.perBankWrBursts::0              7363                       # Per bank write bursts
system.mem_ctrls.perBankWrBursts::1              7518                       # Per bank write bursts
system.mem_ctrls.perBankWrBursts::2              7533                       # Per bank write bursts
system.mem_ctrls.perBankWrBursts::3              7459                       # Per bank write bursts
system.mem_ctrls.perBankWrBursts::4              7527                       # Per bank write bursts
system.mem_ctrls.perBankWrBursts::5              7377                       # Per bank write bursts
system.mem_ctrls.perBankWrBursts::6              7350                       # Per bank write bursts
system.mem_ctrls.perBankWrBursts::7              7298                       # Per bank write bursts
system.mem_ctrls.perBankWrBursts::8              7168                       # Per bank write bursts
system.mem_ctrls.perBankWrBursts::9              7225                       # Per bank write bursts
system.mem_ctrls.perBankWrBursts::10             7152                       # Per bank write bursts
system.mem_ctrls.perBankWrBursts::11             7204                       # Per bank write bursts
system.mem_ctrls.perBankWrBursts::12             7188                       # Per bank write bursts
system.mem_ctrls.perBankWrBursts::13             7202                       # Per bank write bursts
system.mem_ctrls.perBankWrBursts::14             7478                       # Per bank write bursts
system.mem_ctrls.perBankWrBursts::15             7400                       # Per bank write bursts
system.mem_ctrls.avgRdQLen                       1.07                       # Average read queue length when enqueuing
system.mem_ctrls.avgWrQLen                      24.88                       # Average write queue length when enqueuing
system.mem_ctrls.totQLat                   2783096250                       # Total ticks spent queuing
system.mem_ctrls.totBusLat                 1039775000                       # Total ticks spent in databus transfers
system.mem_ctrls.totMemAccLat              6682252500                       # Total ticks spent from burst creation until serviced by the DRAM
system.mem_ctrls.avgQLat                     13383.17                       # Average queueing delay per DRAM burst
system.mem_ctrls.avgBusLat                    5000.00                       # Average bus latency per DRAM burst
system.mem_ctrls.avgMemAccLat                32133.17                       # Average memory access latency per DRAM burst
system.mem_ctrls.numRdRetry                         0                       # Number of times read queue was full causing retry
system.mem_ctrls.numWrRetry                         0                       # Number of times write queue was full causing retry
system.mem_ctrls.readRowHits                   140276                       # Number of row buffer hits during reads
system.mem_ctrls.writeRowHits                   70590                       # Number of row buffer hits during writes
system.mem_ctrls.readRowHitRate                 67.45                       # Row buffer hit rate for reads
system.mem_ctrls.writeRowHitRate                60.09                       # Row buffer hit rate for writes
system.mem_ctrls.readPktSize::0                     0                       # Read request sizes (log2)
system.mem_ctrls.readPktSize::1                     0                       # Read request sizes (log2)
system.mem_ctrls.readPktSize::2                     0                       # Read request sizes (log2)
system.mem_ctrls.readPktSize::3                     0                       # Read request sizes (log2)
system.mem_ctrls.readPktSize::4                     0                       # Read request sizes (log2)
system.mem_ctrls.readPktSize::5                     0                       # Read request sizes (log2)
system.mem_ctrls.readPktSize::6                207994                       # Read request sizes (log2)
system.mem_ctrls.writePktSize::0                    0                       # Write request sizes (log2)
system.mem_ctrls.writePktSize::1                    0                       # Write request sizes (log2)
system.mem_ctrls.writePktSize::2                    0                       # Write request sizes (log2)
system.mem_ctrls.writePktSize::3                    0                       # Write request sizes (log2)
system.mem_ctrls.writePktSize::4                    0                       # Write request sizes (log2)
system.mem_ctrls.writePktSize::5                    0                       # Write request sizes (log2)
system.mem_ctrls.writePktSize::6               117467                       # Write request sizes (log2)
system.mem_ctrls.rdQLenPdf::0                  148549                       # What read queue length does an incoming req see
system.mem_ctrls.rdQLenPdf::1                   59394                       # What read queue length does an incoming req see
system.mem_ctrls.rdQLenPdf::2                      12                       # What read queue length does an incoming req see
system.mem_ctrls.rdQLenPdf::3                       0                       # What read queue length does an incoming req see
system.mem_ctrls.rdQLenPdf::4                       0                       # What read queue length does an incoming req see
system.mem_ctrls.rdQLenPdf::5                       0                       # What read queue length does an incoming req see
system.mem_ctrls.rdQLenPdf::6                       0                       # What read queue length does an incoming req see
system.mem_ctrls.rdQLenPdf::7                       0                       # What read queue length does an incoming req see
system.mem_ctrls.rdQLenPdf::8                       0                       # What read queue length does an incoming req see
system.mem_ctrls.rdQLenPdf::9                       0                       # What read queue length does an incoming req see
system.mem_ctrls.rdQLenPdf::10                      0                       # What read queue length does an incoming req see
system.mem_ctrls.rdQLenPdf::11                      0                       # What read queue length does an incoming req see
system.mem_ctrls.rdQLenPdf::12                      0                       # What read queue length does an incoming req see
system.mem_ctrls.rdQLenPdf::13                      0                       # What read queue length does an incoming req see
system.mem_ctrls.rdQLenPdf::14                      0                       # What read queue length does an incoming req see
system.mem_ctrls.rdQLenPdf::15                      0                       # What read queue length does an incoming req see
system.mem_ctrls.rdQLenPdf::16                      0                       # What read queue length does an incoming req see
system.mem_ctrls.rdQLenPdf::17                      0                       # What read queue length does an incoming req see
system.mem_ctrls.rdQLenPdf::18                      0                       # What read queue length does an incoming req see
system.mem_ctrls.rdQLenPdf::19                      0                       # What read queue length does an incoming req see
system.mem_ctrls.rdQLenPdf::20                      0                       # What read queue length does an incoming req see
system.mem_ctrls.rdQLenPdf::21                      0                       # What read queue length does an incoming req see
system.mem_ctrls.rdQLenPdf::22                      0                       # What read queue length does an incoming req see
system.mem_ctrls.rdQLenPdf::23                      0                       # What read queue length does an incoming req see
system.mem_ctrls.rdQLenPdf::24                      0                       # What read queue length does an incoming req see
system.mem_ctrls.rdQLenPdf::25                      0                       # What read queue length does an incoming req see
system.mem_ctrls.rdQLenPdf::26                      0                       # What read queue length does an incoming req see
system.mem_ctrls.rdQLenPdf::27                      0                       # What read queue length does an incoming req see
system.mem_ctrls.rdQLenPdf::28                      0                       # What read queue length does an incoming req see
system.mem_ctrls.rdQLenPdf::29                      0                       # What read queue length does an incoming req see
system.mem_ctrls.rdQLenPdf::30                      0                       # What read queue length does an incoming req see
system.mem_ctrls.rdQLenPdf::31                      0                       # What read queue length does an incoming req see
system.mem_ctrls.wrQLenPdf::0                       1                       # What write queue length does an incoming req see
system.mem_ctrls.wrQLenPdf::1                       1                       # What write queue length does an incoming req see
system.mem_ctrls.wrQLenPdf::2                       1                       # What write queue length does an incoming req see
system.mem_ctrls.wrQLenPdf::3                       1                       # What write queue length does an incoming req see
system.mem_ctrls.wrQLenPdf::4                       1                       # What write queue length does an incoming req see
system.mem_ctrls.wrQLenPdf::5                       1                       # What write queue length does an incoming req see
system.mem_ctrls.wrQLenPdf::6                       1                       # What write queue length does an incoming req see
system.mem_ctrls.wrQLenPdf::7                       1                       # What write queue length does an incoming req see
system.mem_ctrls.wrQLenPdf::8                       1                       # What write queue length does an incoming req see
system.mem_ctrls.wrQLenPdf::9                       1                       # What write queue length does an incoming req see
system.mem_ctrls.wrQLenPdf::10                      1                       # What write queue length does an incoming req see
system.mem_ctrls.wrQLenPdf::11                      1                       # What write queue length does an incoming req see
system.mem_ctrls.wrQLenPdf::12                      1                       # What write queue length does an incoming req see
system.mem_ctrls.wrQLenPdf::13                      1                       # What write queue length does an incoming req see
system.mem_ctrls.wrQLenPdf::14                      1                       # What write queue length does an incoming req see
system.mem_ctrls.wrQLenPdf::15                   2360                       # What write queue length does an incoming req see
system.mem_ctrls.wrQLenPdf::16                   2404                       # What write queue length does an incoming req see
system.mem_ctrls.wrQLenPdf::17                   5310                       # What write queue length does an incoming req see
system.mem_ctrls.wrQLenPdf::18                   7150                       # What write queue length does an incoming req see
system.mem_ctrls.wrQLenPdf::19                   7098                       # What write queue length does an incoming req see
system.mem_ctrls.wrQLenPdf::20                   7141                       # What write queue length does an incoming req see
system.mem_ctrls.wrQLenPdf::21                   7106                       # What write queue length does an incoming req see
system.mem_ctrls.wrQLenPdf::22                   7238                       # What write queue length does an incoming req see
system.mem_ctrls.wrQLenPdf::23                   7126                       # What write queue length does an incoming req see
system.mem_ctrls.wrQLenPdf::24                   7364                       # What write queue length does an incoming req see
system.mem_ctrls.wrQLenPdf::25                   7193                       # What write queue length does an incoming req see
system.mem_ctrls.wrQLenPdf::26                   7525                       # What write queue length does an incoming req see
system.mem_ctrls.wrQLenPdf::27                   7085                       # What write queue length does an incoming req see
system.mem_ctrls.wrQLenPdf::28                   7162                       # What write queue length does an incoming req see
system.mem_ctrls.wrQLenPdf::29                   7095                       # What write queue length does an incoming req see
system.mem_ctrls.wrQLenPdf::30                   7036                       # What write queue length does an incoming req see
system.mem_ctrls.wrQLenPdf::31                   7032                       # What write queue length does an incoming req see
system.mem_ctrls.wrQLenPdf::32                   7027                       # What write queue length does an incoming req see
system.mem_ctrls.wrQLenPdf::33                      0                       # What write queue length does an incoming req see
system.mem_ctrls.wrQLenPdf::34                      0                       # What write queue length does an incoming req see
system.mem_ctrls.wrQLenPdf::35                      0                       # What write queue length does an incoming req see
system.mem_ctrls.wrQLenPdf::36                      0                       # What write queue length does an incoming req see
system.mem_ctrls.wrQLenPdf::37                      0                       # What write queue length does an incoming req see
system.mem_ctrls.wrQLenPdf::38                      0                       # What write queue length does an incoming req see
system.mem_ctrls.wrQLenPdf::39                      0                       # What write queue length does an incoming req see
system.mem_ctrls.wrQLenPdf::40                      0                       # What write queue length does an incoming req see
system.mem_ctrls.wrQLenPdf::41                      0                       # What write queue length does an incoming req see
system.mem_ctrls.wrQLenPdf::42                      0                       # What write queue length does an incoming req see
system.mem_ctrls.wrQLenPdf::43                      0                       # What write queue length does an incoming req see
system.mem_ctrls.wrQLenPdf::44                      0                       # What write queue length does an incoming req see
system.mem_ctrls.wrQLenPdf::45                      0                       # What write queue length does an incoming req see
system.mem_ctrls.wrQLenPdf::46                      0                       # What write queue length does an incoming req see
system.mem_ctrls.wrQLenPdf::47                      0                       # What write queue length does an incoming req see
system.mem_ctrls.wrQLenPdf::48                      0                       # What write queue length does an incoming req see
system.mem_ctrls.wrQLenPdf::49                      0                       # What write queue length does an incoming req see
system.mem_ctrls.wrQLenPdf::50                      0                       # What write queue length does an incoming req see
system.mem_ctrls.wrQLenPdf::51                      0                       # What write queue length does an incoming req see
system.mem_ctrls.wrQLenPdf::52                      0                       # What write queue length does an incoming req see
system.mem_ctrls.wrQLenPdf::53                      0                       # What write queue length does an incoming req see
system.mem_ctrls.wrQLenPdf::54                      0                       # What write queue length does an incoming req see
system.mem_ctrls.wrQLenPdf::55                      0                       # What write queue length does an incoming req see
system.mem_ctrls.wrQLenPdf::56                      0                       # What write queue length does an incoming req see
system.mem_ctrls.wrQLenPdf::57                      0                       # What write queue length does an incoming req see
system.mem_ctrls.wrQLenPdf::58                      0                       # What write queue length does an incoming req see
system.mem_ctrls.wrQLenPdf::59                      0                       # What write queue length does an incoming req see
system.mem_ctrls.wrQLenPdf::60                      0                       # What write queue length does an incoming req see
system.mem_ctrls.wrQLenPdf::61                      0                       # What write queue length does an incoming req see
system.mem_ctrls.wrQLenPdf::62                      0                       # What write queue length does an incoming req see
system.mem_ctrls.wrQLenPdf::63                      0                       # What write queue length does an incoming req see
system.mem_ctrls.bytesPerActivate::samples       114530                       # Bytes accessed per row activation
system.mem_ctrls.bytesPerActivate::mean    181.830857                       # Bytes accessed per row activation
system.mem_ctrls.bytesPerActivate::gmean   107.083414                       # Bytes accessed per row activation
system.mem_ctrls.bytesPerActivate::stdev   249.970430                       # Bytes accessed per row activation
system.mem_ctrls.bytesPerActivate::0-127        78100     68.19%     68.19% # Bytes accessed per row activation
system.mem_ctrls.bytesPerActivate::128-255        15276     13.34%     81.53% # Bytes accessed per row activation
system.mem_ctrls.bytesPerActivate::256-383         2668      2.33%     83.86% # Bytes accessed per row activation
system.mem_ctrls.bytesPerActivate::384-511         1655      1.45%     85.30% # Bytes accessed per row activation
system.mem_ctrls.bytesPerActivate::512-639         8657      7.56%     92.86% # Bytes accessed per row activation
system.mem_ctrls.bytesPerActivate::640-767          620      0.54%     93.40% # Bytes accessed per row activation
system.mem_ctrls.bytesPerActivate::768-895         1415      1.24%     94.64% # Bytes accessed per row activation
system.mem_ctrls.bytesPerActivate::896-1023          452      0.39%     95.03% # Bytes accessed per row activation
system.mem_ctrls.bytesPerActivate::1024-1151         5687      4.97%    100.00% # Bytes accessed per row activation
system.mem_ctrls.bytesPerActivate::total       114530                       # Bytes accessed per row activation
system.mem_ctrls.rdPerTurnAround::samples         7027                       # Reads before turning the bus around for writes
system.mem_ctrls.rdPerTurnAround::mean      29.592145                       # Reads before turning the bus around for writes
system.mem_ctrls.rdPerTurnAround::gmean     23.415004                       # Reads before turning the bus around for writes
system.mem_ctrls.rdPerTurnAround::stdev     51.666469                       # Reads before turning the bus around for writes
system.mem_ctrls.rdPerTurnAround::0-127          6863     97.67%     97.67% # Reads before turning the bus around for writes
system.mem_ctrls.rdPerTurnAround::128-255           36      0.51%     98.18% # Reads before turning the bus around for writes
system.mem_ctrls.rdPerTurnAround::256-383          125      1.78%     99.96% # Reads before turning the bus around for writes
system.mem_ctrls.rdPerTurnAround::512-639            1      0.01%     99.97% # Reads before turning the bus around for writes
system.mem_ctrls.rdPerTurnAround::1664-1791            1      0.01%     99.99% # Reads before turning the bus around for writes
[...]
system.cpu.icache.ReadReq_avg_miss_latency::.cpu.inst 24318.304692                       # average ReadReq miss latency
system.cpu.icache.ReadReq_avg_miss_latency::total 24318.304692                       # average ReadReq miss latency
system.cpu.icache.ReadReq_mshr_misses::.cpu.inst         5179                       # number of ReadReq MSHR misses
system.cpu.icache.ReadReq_mshr_misses::total         5179                       # number of ReadReq MSHR misses
system.cpu.icache.ReadReq_mshr_miss_latency::.cpu.inst    120765500                       # number of ReadReq MSHR miss cycles
system.cpu.icache.ReadReq_mshr_miss_latency::total    120765500                       # number of ReadReq MSHR miss cycles
system.cpu.icache.ReadReq_mshr_miss_rate::.cpu.inst     0.000360                       # mshr miss rate for ReadReq accesses
system.cpu.icache.ReadReq_mshr_miss_rate::total     0.000360                       # mshr miss rate for ReadReq accesses
system.cpu.icache.ReadReq_avg_mshr_miss_latency::.cpu.inst 23318.304692                       # average ReadReq mshr miss latency
system.cpu.icache.ReadReq_avg_mshr_miss_latency::total 23318.304692                       # average ReadReq mshr miss latency
system.cpu.icache.tags.pwrStateResidencyTicks::UNDEFINED  84133798500                       # Cumulative time (in ticks) in various power states
system.cpu.icache.tags.tagsinuse           370.718472                       # Cycle average of tags in use
system.cpu.icache.tags.total_refs            14389024                       # Total number of references to valid blocks.
system.cpu.icache.tags.sampled_refs              5179                       # Sample count of references to valid blocks.
system.cpu.icache.tags.avg_refs           2778.340220                       # Average number of references to valid blocks.
system.cpu.icache.tags.warmup_cycle             87500                       # Cycle when the warmup percentage was hit.
system.cpu.icache.tags.occ_blocks::.cpu.inst   370.718472                       # Average occupied blocks per requestor
system.cpu.icache.tags.occ_percent::.cpu.inst     0.724060                       # Average percentage of cache occupancy
system.cpu.icache.tags.occ_percent::total     0.724060                       # Average percentage of cache occupancy
system.cpu.icache.tags.occ_task_id_blocks::1024          411                       # Occupied blocks per task id
system.cpu.icache.tags.age_task_id_blocks_1024::4          411                       # Occupied blocks per task id
system.cpu.icache.tags.occ_task_id_percent::1024     0.802734                       # Percentage of cache occupancy per task id
system.cpu.icache.tags.tag_accesses          14394203                       # Number of tag accesses
system.cpu.icache.tags.data_accesses         14394203                       # Number of data accesses
system.cpu.dtb.walker.pwrStateResidencyTicks::UNDEFINED  84133798500                       # Cumulative time (in ticks) in various power states
system.cpu.dtb.stage2_mmu.stage2_tlb.walker.pwrStateResidencyTicks::UNDEFINED  84133798500                       # Cumulative time (in ticks) in various power states
system.cpu.dcache.pwrStateResidencyTicks::UNDEFINED  84133798500                       # Cumulative time (in ticks) in various power states
system.cpu.dcache.demand_hits::.cpu.data     57636179                       # number of demand (read+write) hits
system.cpu.dcache.demand_hits::total         57636179                       # number of demand (read+write) hits
system.cpu.dcache.overall_hits::.cpu.data     57636536                       # number of overall hits
system.cpu.dcache.overall_hits::total        57636536                       # number of overall hits
system.cpu.dcache.demand_misses::.cpu.data       803774                       # number of demand (read+write) misses
system.cpu.dcache.demand_misses::total         803774                       # number of demand (read+write) misses
system.cpu.dcache.overall_misses::.cpu.data       894986                       # number of overall misses
system.cpu.dcache.overall_misses::total        894986                       # number of overall misses
system.cpu.dcache.demand_miss_latency::.cpu.data  26473748500                       # number of demand (read+write) miss cycles
system.cpu.dcache.demand_miss_latency::total  26473748500                       # number of demand (read+write) miss cycles
system.cpu.dcache.overall_miss_latency::.cpu.data  26473748500                       # number of overall miss cycles
system.cpu.dcache.overall_miss_latency::total  26473748500                       # number of overall miss cycles
system.cpu.dcache.demand_accesses::.cpu.data     58439953                       # number of demand (read+write) accesses
system.cpu.dcache.demand_accesses::total     58439953                       # number of demand (read+write) accesses
system.cpu.dcache.overall_accesses::.cpu.data     58531522                       # number of overall (read+write) accesses
system.cpu.dcache.overall_accesses::total     58531522                       # number of overall (read+write) accesses
system.cpu.dcache.demand_miss_rate::.cpu.data     0.013754                       # miss rate for demand accesses
system.cpu.dcache.demand_miss_rate::total     0.013754                       # miss rate for demand accesses
system.cpu.dcache.overall_miss_rate::.cpu.data     0.015291                       # miss rate for overall accesses
system.cpu.dcache.overall_miss_rate::total     0.015291                       # miss rate for overall accesses
system.cpu.dcache.demand_avg_miss_latency::.cpu.data 32936.806242                       # average overall miss latency
system.cpu.dcache.demand_avg_miss_latency::total 32936.806242                       # average overall miss latency
system.cpu.dcache.overall_avg_miss_latency::.cpu.data 29580.069968                       # average overall miss latency
system.cpu.dcache.overall_avg_miss_latency::total 29580.069968                       # average overall miss latency
system.cpu.dcache.blocked_cycles::no_mshrs            0                       # number of cycles access was blocked
system.cpu.dcache.blocked_cycles::no_targets            0                       # number of cycles access was blocked
system.cpu.dcache.blocked::no_mshrs                 0                       # number of cycles access was blocked
system.cpu.dcache.blocked::no_targets               0                       # number of cycles access was blocked
system.cpu.dcache.avg_blocked_cycles::no_mshrs          nan                       # average number of cycles each access was blocked
system.cpu.dcache.avg_blocked_cycles::no_targets          nan                       # average number of cycles each access was blocked
system.cpu.dcache.writebacks::.writebacks       684012                       # number of writebacks
system.cpu.dcache.writebacks::total            684012                       # number of writebacks
system.cpu.dcache.demand_mshr_hits::.cpu.data        68985                       # number of demand (read+write) MSHR hits
system.cpu.dcache.demand_mshr_hits::total        68985                       # number of demand (read+write) MSHR hits
system.cpu.dcache.overall_mshr_hits::.cpu.data        68985                       # number of overall MSHR hits
system.cpu.dcache.overall_mshr_hits::total        68985                       # number of overall MSHR hits
system.cpu.dcache.demand_mshr_misses::.cpu.data       734789                       # number of demand (read+write) MSHR misses
system.cpu.dcache.demand_mshr_misses::total       734789                       # number of demand (read+write) MSHR misses
system.cpu.dcache.overall_mshr_misses::.cpu.data       780426                       # number of overall MSHR misses
system.cpu.dcache.overall_mshr_misses::total       780426                       # number of overall MSHR misses
system.cpu.dcache.demand_mshr_miss_latency::.cpu.data  20892838500                       # number of demand (read+write) MSHR miss cycles
system.cpu.dcache.demand_mshr_miss_latency::total  20892838500                       # number of demand (read+write) MSHR miss cycles
system.cpu.dcache.overall_mshr_miss_latency::.cpu.data  24458294000                       # number of overall MSHR miss cycles
system.cpu.dcache.overall_mshr_miss_latency::total  24458294000                       # number of overall MSHR miss cycles
system.cpu.dcache.demand_mshr_miss_rate::.cpu.data     0.012573                       # mshr miss rate for demand accesses
system.cpu.dcache.demand_mshr_miss_rate::total     0.012573                       # mshr miss rate for demand accesses
system.cpu.dcache.overall_mshr_miss_rate::.cpu.data     0.013333                       # mshr miss rate for overall accesses
system.cpu.dcache.overall_mshr_miss_rate::total     0.013333                       # mshr miss rate for overall accesses
system.cpu.dcache.demand_avg_mshr_miss_latency::.cpu.data 28433.793239                       # average overall mshr miss latency
system.cpu.dcache.demand_avg_mshr_miss_latency::total 28433.793239                       # average overall mshr miss latency
system.cpu.dcache.overall_avg_mshr_miss_latency::.cpu.data 31339.670898                       # average overall mshr miss latency
system.cpu.dcache.overall_avg_mshr_miss_latency::total 31339.670898                       # average overall mshr miss latency
system.cpu.dcache.replacements                 779402                       # number of replacements
system.cpu.dcache.ReadReq_hits::.cpu.data     45195776                       # number of ReadReq hits
system.cpu.dcache.ReadReq_hits::total        45195776                       # number of ReadReq hits
system.cpu.dcache.ReadReq_misses::.cpu.data       435639                       # number of ReadReq misses
system.cpu.dcache.ReadReq_misses::total        435639                       # number of ReadReq misses
system.cpu.dcache.ReadReq_miss_latency::.cpu.data   7555400500                       # number of ReadReq miss cycles
system.cpu.dcache.ReadReq_miss_latency::total   7555400500                       # number of ReadReq miss cycles
system.cpu.dcache.ReadReq_accesses::.cpu.data     45631415                       # number of ReadReq accesses(hits+misses)
system.cpu.dcache.ReadReq_accesses::total     45631415                       # number of ReadReq accesses(hits+misses)
system.cpu.dcache.ReadReq_miss_rate::.cpu.data     0.009547                       # miss rate for ReadReq accesses
system.cpu.dcache.ReadReq_miss_rate::total     0.009547                       # miss rate for ReadReq accesses
system.cpu.dcache.ReadReq_avg_miss_latency::.cpu.data 17343.260131                       # average ReadReq miss latency
system.cpu.dcache.ReadReq_avg_miss_latency::total 17343.260131                       # average ReadReq miss latency
system.cpu.dcache.ReadReq_mshr_hits::.cpu.data         7781                       # number of ReadReq MSHR hits
system.cpu.dcache.ReadReq_mshr_hits::total         7781                       # number of ReadReq MSHR hits
system.cpu.dcache.ReadReq_mshr_misses::.cpu.data       427858                       # number of ReadReq MSHR misses
system.cpu.dcache.ReadReq_mshr_misses::total       427858                       # number of ReadReq MSHR misses
system.cpu.dcache.ReadReq_mshr_miss_latency::.cpu.data   6727544500                       # number of ReadReq MSHR miss cycles
system.cpu.dcache.ReadReq_mshr_miss_latency::total   6727544500                       # number of ReadReq MSHR miss cycles
system.cpu.dcache.ReadReq_mshr_miss_rate::.cpu.data     0.009376                       # mshr miss rate for ReadReq accesses
system.cpu.dcache.ReadReq_mshr_miss_rate::total     0.009376                       # mshr miss rate for ReadReq accesses
system.cpu.dcache.ReadReq_avg_mshr_miss_latency::.cpu.data 15723.778684                       # average ReadReq mshr miss latency
system.cpu.dcache.ReadReq_avg_mshr_miss_latency::total 15723.778684                       # average ReadReq mshr miss latency
system.cpu.dcache.WriteReq_hits::.cpu.data     12440403                       # number of WriteReq hits
system.cpu.dcache.WriteReq_hits::total       12440403                       # number of WriteReq hits
system.cpu.dcache.WriteReq_misses::.cpu.data       368135                       # number of WriteReq misses
system.cpu.dcache.WriteReq_misses::total       368135                       # number of WriteReq misses
system.cpu.dcache.WriteReq_miss_latency::.cpu.data  18918348000                       # number of WriteReq miss cycles
system.cpu.dcache.WriteReq_miss_latency::total  18918348000                       # number of WriteReq miss cycles
system.cpu.dcache.WriteReq_accesses::.cpu.data     12808538                       # number of WriteReq accesses(hits+misses)
system.cpu.dcache.WriteReq_accesses::total     12808538                       # number of WriteReq accesses(hits+misses)
system.cpu.dcache.WriteReq_miss_rate::.cpu.data     0.028741                       # miss rate for WriteReq accesses
system.cpu.dcache.WriteReq_miss_rate::total     0.028741                       # miss rate for WriteReq accesses
system.cpu.dcache.WriteReq_avg_miss_latency::.cpu.data 51389.702147                       # average WriteReq miss latency
system.cpu.dcache.WriteReq_avg_miss_latency::total 51389.702147                       # average WriteReq miss latency
system.cpu.dcache.WriteReq_mshr_hits::.cpu.data        61204                       # number of WriteReq MSHR hits
system.cpu.dcache.WriteReq_mshr_hits::total        61204                       # number of WriteReq MSHR hits
system.cpu.dcache.WriteReq_mshr_misses::.cpu.data       306931                       # number of WriteReq MSHR misses
system.cpu.dcache.WriteReq_mshr_misses::total       306931                       # number of WriteReq MSHR misses
system.cpu.dcache.WriteReq_mshr_miss_latency::.cpu.data  14165294000                       # number of WriteReq MSHR miss cycles
system.cpu.dcache.WriteReq_mshr_miss_latency::total  14165294000                       # number of WriteReq MSHR miss cycles
system.cpu.dcache.WriteReq_mshr_miss_rate::.cpu.data     0.023963                       # mshr miss rate for WriteReq accesses
system.cpu.dcache.WriteReq_mshr_miss_rate::total     0.023963                       # mshr miss rate for WriteReq accesses
system.cpu.dcache.WriteReq_avg_mshr_miss_latency::.cpu.data 46151.395591                       # average WriteReq mshr miss latency
system.cpu.dcache.WriteReq_avg_mshr_miss_latency::total 46151.395591                       # average WriteReq mshr miss latency
system.cpu.dcache.SoftPFReq_hits::.cpu.data          357                       # number of SoftPFReq hits
system.cpu.dcache.SoftPFReq_hits::total           357                       # number of SoftPFReq hits
system.cpu.dcache.SoftPFReq_misses::.cpu.data        91212                       # number of SoftPFReq misses
system.cpu.dcache.SoftPFReq_misses::total        91212                       # number of SoftPFReq misses
system.cpu.dcache.SoftPFReq_accesses::.cpu.data        91569                       # number of SoftPFReq accesses(hits+misses)
system.cpu.dcache.SoftPFReq_accesses::total        91569                       # number of SoftPFReq accesses(hits+misses)
system.cpu.dcache.SoftPFReq_miss_rate::.cpu.data     0.996101                       # miss rate for SoftPFReq accesses
system.cpu.dcache.SoftPFReq_miss_rate::total     0.996101                       # miss rate for SoftPFReq accesses
system.cpu.dcache.SoftPFReq_mshr_misses::.cpu.data        45637                       # number of SoftPFReq MSHR misses
system.cpu.dcache.SoftPFReq_mshr_misses::total        45637                       # number of SoftPFReq MSHR misses
system.cpu.dcache.SoftPFReq_mshr_miss_latency::.cpu.data   3565455500                       # number of SoftPFReq MSHR miss cycles
system.cpu.dcache.SoftPFReq_mshr_miss_latency::total   3565455500                       # number of SoftPFReq MSHR miss cycles
system.cpu.dcache.SoftPFReq_mshr_miss_rate::.cpu.data     0.498389                       # mshr miss rate for SoftPFReq accesses
system.cpu.dcache.SoftPFReq_mshr_miss_rate::total     0.498389                       # mshr miss rate for SoftPFReq accesses
system.cpu.dcache.SoftPFReq_avg_mshr_miss_latency::.cpu.data 78126.421544                       # average SoftPFReq mshr miss latency
system.cpu.dcache.SoftPFReq_avg_mshr_miss_latency::total 78126.421544                       # average SoftPFReq mshr miss latency
system.cpu.dcache.LoadLockedReq_hits::.cpu.data           38                       # number of LoadLockedReq hits
system.cpu.dcache.LoadLockedReq_hits::total           38                       # number of LoadLockedReq hits
system.cpu.dcache.LoadLockedReq_accesses::.cpu.data           38                       # number of LoadLockedReq accesses(hits+misses)
system.cpu.dcache.LoadLockedReq_accesses::total           38                       # number of LoadLockedReq accesses(hits+misses)
system.cpu.dcache.StoreCondReq_hits::.cpu.data           38                       # number of StoreCondReq hits
system.cpu.dcache.StoreCondReq_hits::total           38                       # number of StoreCondReq hits
system.cpu.dcache.StoreCondReq_accesses::.cpu.data           38                       # number of StoreCondReq accesses(hits+misses)
system.cpu.dcache.StoreCondReq_accesses::total           38                       # number of StoreCondReq accesses(hits+misses)
system.cpu.dcache.tags.pwrStateResidencyTicks::UNDEFINED  84133798500                       # Cumulative time (in ticks) in various power states
system.cpu.dcache.tags.tagsinuse          1009.095545                       # Cycle average of tags in use
system.cpu.dcache.tags.total_refs            58417038                       # Total number of references to valid blocks.
system.cpu.dcache.tags.sampled_refs            780426                       # Sample count of references to valid blocks.
system.cpu.dcache.tags.avg_refs             74.852757                       # Average number of references to valid blocks.
system.cpu.dcache.tags.warmup_cycle            176500                       # Cycle when the warmup percentage was hit.
system.cpu.dcache.tags.occ_blocks::.cpu.data  1009.095545                       # Average occupied blocks per requestor
system.cpu.dcache.tags.occ_percent::.cpu.data     0.985445                       # Average percentage of cache occupancy
system.cpu.dcache.tags.occ_percent::total     0.985445                       # Average percentage of cache occupancy
system.cpu.dcache.tags.occ_task_id_blocks::1024         1024                       # Occupied blocks per task id
system.cpu.dcache.tags.age_task_id_blocks_1024::0          204                       # Occupied blocks per task id
system.cpu.dcache.tags.age_task_id_blocks_1024::1          481                       # Occupied blocks per task id
system.cpu.dcache.tags.age_task_id_blocks_1024::2          338                       # Occupied blocks per task id
system.cpu.dcache.tags.age_task_id_blocks_1024::3            1                       # Occupied blocks per task id
system.cpu.dcache.tags.occ_task_id_percent::1024            1                       # Percentage of cache occupancy per task id
system.cpu.dcache.tags.tag_accesses         117843622                       # Number of tag accesses
system.cpu.dcache.tags.data_accesses        117843622                       # Number of data accesses
system.cpu.itb.walker.pwrStateResidencyTicks::UNDEFINED  84133798500                       # Cumulative time (in ticks) in various power states
system.cpu.itb.stage2_mmu.stage2_tlb.walker.pwrStateResidencyTicks::UNDEFINED  84133798500                       # Cumulative time (in ticks) in various power states

---------- End Simulation Statistics   ----------
