
---------- Begin Simulation Statistics ----------
final_tick                                66873332000                       # Number of ticks from beginning of simulation (restored from checkpoints and never reset)
host_inst_rate                                 336772                       # Simulator instruction rate (inst/s)
host_mem_usage                                 692444                       # Number of bytes of host memory used
host_op_rate                                   368267                       # Simulator op (including micro ops) rate (op/s)
host_seconds                                   296.94                       # Real time elapsed on the host
host_tick_rate                              225210591                       # Simulator tick rate (ticks/s)
sim_freq                                 1000000000000                       # Frequency of simulated ticks
sim_insts                                   100000001                       # Number of instructions simulated
sim_ops                                     109351993                       # Number of ops (including micro ops) simulated
sim_seconds                                  0.066873                       # Number of seconds simulated
sim_ticks                                 66873332000                       # Number of ticks simulated
system.cpu.branchPred.BTBCorrect                    0                       # Number of correct BTB predictions (this stat may not work properly.
system.cpu.branchPred.BTBHitPct             90.981817                       # BTB Hit Percentage
system.cpu.branchPred.BTBHits                 9096494                       # Number of BTB hits
system.cpu.branchPred.BTBLookups              9998145                       # Number of BTB lookups
system.cpu.branchPred.RASInCorrect                321                       # Number of incorrect RAS predictions.
system.cpu.branchPred.condIncorrect            179899                       # Number of conditional branches incorrect
system.cpu.branchPred.condPredicted          15869520                       # Number of conditional branches predicted
system.cpu.branchPred.indirectHits             721887                       # Number of indirect target hits.
system.cpu.branchPred.indirectLookups          722137                       # Number of indirect predictor lookups.
system.cpu.branchPred.indirectMisses              250                       # Number of indirect misses.
system.cpu.branchPred.lookups                21150738                       # Number of BP lookups
system.cpu.branchPred.usedRAS                 1516004                       # Number of times the RAS was used to get a target.
system.cpu.branchPredindirectMispredicted          869                       # Number of mispredicted indirect branches.
system.cpu.committedInsts                   100000001                       # Number of instructions committed
system.cpu.committedOps                     109351993                       # Number of ops (including micro ops) committed
system.cpu.cpi                               1.337467                       # CPI: cycles per instruction
system.cpu.discardedOps                        559819                       # Number of ops (including micro ops) which were discarded before commit
system.cpu.dtb.accesses                             0                       # DTB accesses
system.cpu.dtb.align_faults                         0                       # Number of TLB faults due to alignment restrictions
system.cpu.dtb.domain_faults                        0                       # Number of TLB faults due to domain restrictions
system.cpu.dtb.flush_entries                        0                       # Number of entries that have been flushed from TLB
system.cpu.dtb.flush_tlb                            0                       # Number of times complete TLB was flushed
system.cpu.dtb.flush_tlb_asid                       0                       # Number of times TLB was flushed by ASID
system.cpu.dtb.flush_tlb_mva                        0                       # Number of times TLB was flushed by MVA
system.cpu.dtb.flush_tlb_mva_asid                   0                       # Number of times TLB was flushed by MVA & ASID
system.cpu.dtb.hits                                 0                       # DTB hits
system.cpu.dtb.inst_accesses                        0                       # ITB inst accesses
system.cpu.dtb.inst_hits                            0                       # ITB inst hits
system.cpu.dtb.inst_misses                          0                       # ITB inst misses
system.cpu.dtb.misses                               0                       # DTB misses
system.cpu.dtb.perms_faults                         0                       # Number of TLB faults due to permissions restrictions
system.cpu.dtb.prefetch_faults                      0                       # Number of TLB faults due to prefetch
system.cpu.dtb.read_accesses                        0                       # DTB read accesses
system.cpu.dtb.read_hits                            0                       # DTB read hits
system.cpu.dtb.read_misses                          0                       # DTB read misses
system.cpu.dtb.stage2_mmu.stage2_tlb.accesses            0                       # DTB accesses
system.cpu.dtb.stage2_mmu.stage2_tlb.align_faults            0                       # Number of TLB faults due to alignment restrictions
system.cpu.dtb.stage2_mmu.stage2_tlb.domain_faults            0                       # Number of TLB faults due to domain restrictions
system.cpu.dtb.stage2_mmu.stage2_tlb.flush_entries            0                       # Number of entries that have been flushed from TLB
system.cpu.dtb.stage2_mmu.stage2_tlb.flush_tlb            0                       # Number of times complete TLB was flushed
system.cpu.dtb.stage2_mmu.stage2_tlb.flush_tlb_asid            0                       # Number of times TLB was flushed by ASID
system.cpu.dtb.stage2_mmu.stage2_tlb.flush_tlb_mva            0                       # Number of times TLB was flushed by MVA
system.cpu.dtb.stage2_mmu.stage2_tlb.flush_tlb_mva_asid            0                       # Number of times TLB was flushed by MVA & ASID
system.cpu.dtb.stage2_mmu.stage2_tlb.hits            0                       # DTB hits
system.cpu.dtb.stage2_mmu.stage2_tlb.inst_accesses            0                       # ITB inst accesses
system.cpu.dtb.stage2_mmu.stage2_tlb.inst_hits            0                       # ITB inst hits
system.cpu.dtb.stage2_mmu.stage2_tlb.inst_misses            0                       # ITB inst misses
system.cpu.dtb.stage2_mmu.stage2_tlb.misses            0                       # DTB misses
system.cpu.dtb.stage2_mmu.stage2_tlb.perms_faults            0                       # Number of TLB faults due to permissions restrictions
system.cpu.dtb.stage2_mmu.stage2_tlb.prefetch_faults            0                       # Number of TLB faults due to prefetch
system.cpu.dtb.stage2_mmu.stage2_tlb.read_accesses            0                       # DTB read accesses
system.cpu.dtb.stage2_mmu.stage2_tlb.read_hits            0                       # DTB read hits
system.cpu.dtb.stage2_mmu.stage2_tlb.read_misses            0                       # DTB read misses
system.cpu.dtb.stage2_mmu.stage2_tlb.walker.walkRequestOrigin_Requested::Data            0                       # Table walker requests started/completed, data/inst
system.cpu.dtb.stage2_mmu.stage2_tlb.walker.walkRequestOrigin_Requested::Inst            0                       # Table walker requests started/completed, data/inst
system.cpu.dtb.stage2_mmu.stage2_tlb.walker.walkRequestOrigin_Requested::total            0                       # Table walker requests started/completed, data/inst
system.cpu.dtb.stage2_mmu.stage2_tlb.walker.walkRequestOrigin_Completed::Data            0                       # Table walker requests started/completed, data/inst
system.cpu.dtb.stage2_mmu.stage2_tlb.walker.walkRequestOrigin_Completed::Inst            0                       # Table walker requests started/completed, data/inst
system.cpu.dtb.stage2_mmu.stage2_tlb.walker.walkRequestOrigin_Completed::total            0                       # Table walker requests started/completed, data/inst
system.cpu.dtb.stage2_mmu.stage2_tlb.walker.walkRequestOrigin::total            0                       # Table walker requests started/completed, data/inst
system.cpu.dtb.stage2_mmu.stage2_tlb.walker.walks            0                       # Table walker walks requested
system.cpu.dtb.stage2_mmu.stage2_tlb.write_accesses            0                       # DTB write accesses
system.cpu.dtb.stage2_mmu.stage2_tlb.write_hits            0                       # DTB write hits
system.cpu.dtb.stage2_mmu.stage2_tlb.write_misses            0                       # DTB write misses
system.cpu.dtb.walker.walkRequestOrigin_Requested::Data            0                       # Table walker requests started/completed, data/inst
system.cpu.dtb.walker.walkRequestOrigin_Requested::Inst            0                       # Table walker requests started/completed, data/inst
system.cpu.dtb.walker.walkRequestOrigin_Requested::total            0                       # Table walker requests started/completed, data/inst
system.cpu.dtb.walker.walkRequestOrigin_Completed::Data            0                       # Table walker requests started/completed, data/inst
system.cpu.dtb.walker.walkRequestOrigin_Completed::Inst            0                       # Table walker requests started/completed, data/inst
system.cpu.dtb.walker.walkRequestOrigin_Completed::total            0                       # Table walker requests started/completed, data/inst
system.cpu.dtb.walker.walkRequestOrigin::total            0                       # Table walker requests started/completed, data/inst
system.cpu.dtb.walker.walks                         0                       # Table walker walks requested
system.cpu.dtb.write_accesses                       0                       # DTB write accesses
system.cpu.dtb.write_hits                           0                       # DTB write hits
system.cpu.dtb.write_misses                         0                       # DTB write misses
system.cpu.fetch2.amo_instructions                  0                       # Number of memory atomic instructions successfully decoded
system.cpu.fetch2.fp_instructions                   0                       # Number of floating point instructions successfully decoded
system.cpu.fetch2.int_instructions           51525906                       # Number of integer instructions successfully decoded
system.cpu.fetch2.load_instructions          18818015                       # Number of memory load instructions successfully decoded
system.cpu.fetch2.store_instructions         10411135                       # Number of memory store instructions successfully decoded
system.cpu.fetch2.vec_instructions                  0                       # Number of SIMD instructions successfully decoded
system.cpu.idleCycles                        10955432                       # Total number of cycles that the object has spent stopped
system.cpu.ipc                               0.747682                       # IPC: instructions per cycle
system.cpu.itb.accesses                             0                       # DTB accesses
system.cpu.itb.align_faults                         0                       # Number of TLB faults due to alignment restrictions
system.cpu.itb.domain_faults                        0                       # Number of TLB faults due to domain restrictions
system.cpu.itb.flush_entries                        0                       # Number of entries that have been flushed from TLB
system.cpu.itb.flush_tlb                            0                       # Number of times complete TLB was flushed
system.cpu.itb.flush_tlb_asid                       0                       # Number of times TLB was flushed by ASID
system.cpu.itb.flush_tlb_mva                        0                       # Number of times TLB was flushed by MVA
system.cpu.itb.flush_tlb_mva_asid                   0                       # Number of times TLB was flushed by MVA & ASID
system.cpu.itb.hits                                 0                       # DTB hits
system.cpu.itb.inst_accesses                        0                       # ITB inst accesses
system.cpu.itb.inst_hits                            0                       # ITB inst hits
system.cpu.itb.inst_misses                          0                       # ITB inst misses
system.cpu.itb.misses                               0                       # DTB misses
system.cpu.itb.perms_faults                         0                       # Number of TLB faults due to permissions restrictions
system.cpu.itb.prefetch_faults                      0                       # Number of TLB faults due to prefetch
system.cpu.itb.read_accesses                        0                       # DTB read accesses
system.cpu.itb.read_hits                            0                       # DTB read hits
system.cpu.itb.read_misses                          0                       # DTB read misses
system.cpu.itb.stage2_mmu.stage2_tlb.accesses            0                       # DTB accesses
system.cpu.itb.stage2_mmu.stage2_tlb.align_faults            0                       # Number of TLB faults due to alignment restrictions
system.cpu.itb.stage2_mmu.stage2_tlb.domain_faults            0                       # Number of TLB faults due to domain restrictions
system.cpu.itb.stage2_mmu.stage2_tlb.flush_entries            0                       # Number of entries that have been flushed from TLB
system.cpu.itb.stage2_mmu.stage2_tlb.flush_tlb            0                       # Number of times complete TLB was flushed
system.cpu.itb.stage2_mmu.stage2_tlb.flush_tlb_asid            0                       # Number of times TLB was flushed by ASID
system.cpu.itb.stage2_mmu.stage2_tlb.flush_tlb_mva            0                       # Number of times TLB was flushed by MVA
system.cpu.itb.stage2_mmu.stage2_tlb.flush_tlb_mva_asid            0                       # Number of times TLB was flushed by MVA & ASID
system.cpu.itb.stage2_mmu.stage2_tlb.hits            0                       # DTB hits
system.cpu.itb.stage2_mmu.stage2_tlb.inst_accesses            0                       # ITB inst accesses
system.cpu.itb.stage2_mmu.stage2_tlb.inst_hits            0                       # ITB inst hits
system.cpu.itb.stage2_mmu.stage2_tlb.inst_misses            0                       # ITB inst misses
system.cpu.itb.stage2_mmu.stage2_tlb.misses            0                       # DTB misses
system.cpu.itb.stage2_mmu.stage2_tlb.perms_faults            0                       # Number of TLB faults due to permissions restrictions
system.cpu.itb.stage2_mmu.stage2_tlb.prefetch_faults            0                       # Number of TLB faults due to prefetch
system.cpu.itb.stage2_mmu.stage2_tlb.read_accesses            0                       # DTB read accesses
system.cpu.itb.stage2_mmu.stage2_tlb.read_hits            0                       # DTB read hits
system.cpu.itb.stage2_mmu.stage2_tlb.read_misses            0                       # DTB read misses
system.cpu.itb.stage2_mmu.stage2_tlb.walker.walkRequestOrigin_Requested::Data            0                       # Table walker requests started/completed, data/inst
system.cpu.itb.stage2_mmu.stage2_tlb.walker.walkRequestOrigin_Requested::Inst            0                       # Table walker requests started/completed, data/inst
system.cpu.itb.stage2_mmu.stage2_tlb.walker.walkRequestOrigin_Requested::total            0                       # Table walker requests started/completed, data/inst
system.cpu.itb.stage2_mmu.stage2_tlb.walker.walkRequestOrigin_Completed::Data            0                       # Table walker requests started/completed, data/inst
system.cpu.itb.stage2_mmu.stage2_tlb.walker.walkRequestOrigin_Completed::Inst            0                       # Table walker requests started/completed, data/inst
system.cpu.itb.stage2_mmu.stage2_tlb.walker.walkRequestOrigin_Completed::total            0                       # Table walker requests started/completed, data/inst
system.cpu.itb.stage2_mmu.stage2_tlb.walker.walkRequestOrigin::total            0                       # Table walker requests started/completed, data/inst
system.cpu.itb.stage2_mmu.stage2_tlb.walker.walks            0                       # Table walker walks requested
system.cpu.itb.stage2_mmu.stage2_tlb.write_accesses            0                       # DTB write accesses
system.cpu.itb.stage2_mmu.stage2_tlb.write_hits            0                       # DTB write hits
system.cpu.itb.stage2_mmu.stage2_tlb.write_misses            0                       # DTB write misses
system.cpu.itb.walker.walkRequestOrigin_Requested::Data            0                       # Table walker requests started/completed, data/inst
system.cpu.itb.walker.walkRequestOrigin_Requested::Inst            0                       # Table walker requests started/completed, data/inst
system.cpu.itb.walker.walkRequestOrigin_Requested::total            0                       # Table walker requests started/completed, data/inst
system.cpu.itb.walker.walkRequestOrigin_Completed::Data            0                       # Table walker requests started/completed, data/inst
system.cpu.itb.walker.walkRequestOrigin_Completed::Inst            0                       # Table walker requests started/completed, data/inst
system.cpu.itb.walker.walkRequestOrigin_Completed::total            0                       # Table walker requests started/completed, data/inst
system.cpu.itb.walker.walkRequestOrigin::total            0                       # Table walker requests started/completed, data/inst
system.cpu.itb.walker.walks                         0                       # Table walker walks requested
system.cpu.itb.write_accesses                       0                       # DTB write accesses
system.cpu.itb.write_hits                           0                       # DTB write hits
system.cpu.itb.write_misses                         0                       # DTB write misses
system.cpu.numCycles                        133746664                       # number of cpu cycles simulated
system.cpu.numFetchSuspends                         0                       # Number of times Execute suspended instruction fetching
system.cpu.numWorkItemsCompleted                    0                       # number of work items this cpu completed
system.cpu.numWorkItemsStarted                      0                       # number of work items this cpu started
system.cpu.op_class_0::No_OpClass                   0      0.00%      0.00% # Class of committed instruction
system.cpu.op_class_0::IntAlu                71300845     65.20%     65.20% # Class of committed instruction
system.cpu.op_class_0::IntMult                 402396      0.37%     65.57% # Class of committed instruction
system.cpu.op_class_0::IntDiv                       0      0.00%     65.57% # Class of committed instruction
system.cpu.op_class_0::FloatAdd                     0      0.00%     65.57% # Class of committed instruction
system.cpu.op_class_0::FloatCmp                     0      0.00%     65.57% # Class of committed instruction
system.cpu.op_class_0::FloatCvt                     0      0.00%     65.57% # Class of committed instruction
system.cpu.op_class_0::FloatMult                    0      0.00%     65.57% # Class of committed instruction
system.cpu.op_class_0::FloatMultAcc                 0      0.00%     65.57% # Class of committed instruction
system.cpu.op_class_0::FloatDiv                     0      0.00%     65.57% # Class of committed instruction
system.cpu.op_class_0::FloatMisc                    0      0.00%     65.57% # Class of committed instruction
system.cpu.op_class_0::FloatSqrt                    0      0.00%     65.57% # Class of committed instruction
system.cpu.op_class_0::SimdAdd                      0      0.00%     65.57% # Class of committed instruction
system.cpu.op_class_0::SimdAddAcc                   0      0.00%     65.57% # Class of committed instruction
system.cpu.op_class_0::SimdAlu                      0      0.00%     65.57% # Class of committed instruction
system.cpu.op_class_0::SimdCmp                      0      0.00%     65.57% # Class of committed instruction
system.cpu.op_class_0::SimdCvt                      0      0.00%     65.57% # Class of committed instruction
system.cpu.op_class_0::SimdMisc                     0      0.00%     65.57% # Class of committed instruction
system.cpu.op_class_0::SimdMult                     0      0.00%     65.57% # Class of committed instruction
system.cpu.op_class_0::SimdMultAcc                  0      0.00%     65.57% # Class of committed instruction
system.cpu.op_class_0::SimdShift                    0      0.00%     65.57% # Class of committed instruction
system.cpu.op_class_0::SimdShiftAcc                 0      0.00%     65.57% # Class of committed instruction
system.cpu.op_class_0::SimdDiv                      0      0.00%     65.57% # Class of committed instruction
system.cpu.op_class_0::SimdSqrt                     0      0.00%     65.57% # Class of committed instruction
system.cpu.op_class_0::SimdFloatAdd                 0      0.00%     65.57% # Class of committed instruction
system.cpu.op_class_0::SimdFloatAlu                 0      0.00%     65.57% # Class of committed instruction
system.cpu.op_class_0::SimdFloatCmp                 0      0.00%     65.57% # Class of committed instruction
system.cpu.op_class_0::SimdFloatCvt                 0      0.00%     65.57% # Class of committed instruction
system.cpu.op_class_0::SimdFloatDiv                 0      0.00%     65.57% # Class of committed instruction
system.cpu.op_class_0::SimdFloatMisc           122636      0.11%     65.68% # Class of committed instruction
system.cpu.op_class_0::SimdFloatMult                0      0.00%     65.68% # Class of committed instruction
system.cpu.op_class_0::SimdFloatMultAcc             0      0.00%     65.68% # Class of committed instruction
system.cpu.op_class_0::SimdFloatSqrt                0      0.00%     65.68% # Class of committed instruction
system.cpu.op_class_0::SimdReduceAdd                0      0.00%     65.68% # Class of committed instruction
system.cpu.op_class_0::SimdReduceAlu                0      0.00%     65.68% # Class of committed instruction
system.cpu.op_class_0::SimdReduceCmp                0      0.00%     65.68% # Class of committed instruction
system.cpu.op_class_0::SimdFloatReduceAdd            0      0.00%     65.68% # Class of committed instruction
system.cpu.op_class_0::SimdFloatReduceCmp            0      0.00%     65.68% # Class of committed instruction
system.cpu.op_class_0::SimdAes                      0      0.00%     65.68% # Class of committed instruction
system.cpu.op_class_0::SimdAesMix                   0      0.00%     65.68% # Class of committed instruction
system.cpu.op_class_0::SimdSha1Hash                 0      0.00%     65.68% # Class of committed instruction
system.cpu.op_class_0::SimdSha1Hash2                0      0.00%     65.68% # Class of committed instruction
system.cpu.op_class_0::SimdSha256Hash               0      0.00%     65.68% # Class of committed instruction
system.cpu.op_class_0::SimdSha256Hash2              0      0.00%     65.68% # Class of committed instruction
system.cpu.op_class_0::SimdShaSigma2                0      0.00%     65.68% # Class of committed instruction
system.cpu.op_class_0::SimdShaSigma3                0      0.00%     65.68% # Class of committed instruction
system.cpu.op_class_0::SimdPredAlu                  0      0.00%     65.68% # Class of committed instruction
system.cpu.op_class_0::MemRead               22212839     20.31%     86.00% # Class of committed instruction
system.cpu.op_class_0::MemWrite              15313277     14.00%    100.00% # Class of committed instruction
system.cpu.op_class_0::FloatMemRead                 0      0.00%    100.00% # Class of committed instruction
system.cpu.op_class_0::FloatMemWrite                0      0.00%    100.00% # Class of committed instruction
system.cpu.op_class_0::IprAccess                    0      0.00%    100.00% # Class of committed instruction
system.cpu.op_class_0::InstPrefetch                 0      0.00%    100.00% # Class of committed instruction
system.cpu.op_class_0::total                109351993                       # Class of committed instruction
system.cpu.tickCycles                       122791232                       # Number of cycles that the object actually ticked
system.cpu.workload.numSyscalls                    84                       # Number of system calls
system.membus.snoop_filter.hit_multi_requests            0                       # Number of requests hitting in the snoop filter with multiple (>1) holders of the requested data.
system.membus.snoop_filter.hit_multi_snoops            0                       # Number of snoops hitting in the snoop filter with multiple (>1) holders of the requested data.
system.membus.snoop_filter.hit_single_requests         5862                       # Number of requests hitting in the snoop filter with a single holder of the requested data.
system.membus.snoop_filter.hit_single_snoops            0                       # Number of snoops hitting in the snoop filter with a single holder of the requested data.
system.membus.snoop_filter.tot_requests         44939                       # Total number of requests made to the snoop filter.
system.membus.snoop_filter.tot_snoops               0                       # Total number of snoops made to the snoop filter.
system.tol2bus.snoop_filter.hit_multi_requests          398                       # Number of requests hitting in the snoop filter with multiple (>1) holders of the requested data.
system.tol2bus.snoop_filter.hit_multi_snoops            6                       # Number of snoops hitting in the snoop filter with multiple (>1) holders of the requested data.
system.tol2bus.snoop_filter.hit_single_requests       693190                       # Number of requests hitting in the snoop filter with a single holder of the requested data.
system.tol2bus.snoop_filter.hit_single_snoops          441                       # Number of snoops hitting in the snoop filter with a single holder of the requested data.
system.tol2bus.snoop_filter.tot_requests      1387832                       # Total number of requests made to the snoop filter.
system.tol2bus.snoop_filter.tot_snoops            447                       # Total number of snoops made to the snoop filter.
system.membus.pwrStateResidencyTicks::UNDEFINED  66873332000                       # Cumulative time (in ticks) in various power states
system.membus.trans_dist::ReadResp               1104                       # Transaction distribution
system.membus.trans_dist::WritebackDirty         5562                       # Transaction distribution
system.membus.trans_dist::CleanEvict              300                       # Transaction distribution
system.membus.trans_dist::ReadExReq             37973                       # Transaction distribution
system.membus.trans_dist::ReadExResp            37973                       # Transaction distribution
system.membus.trans_dist::ReadSharedReq          1104                       # Transaction distribution
system.membus.pkt_count_system.l2.mem_side::system.mem_ctrls.port        84016                       # Packet count per connected master and slave (bytes)
system.membus.pkt_count::total                  84016                       # Packet count per connected master and slave (bytes)
system.membus.pkt_size_system.l2.mem_side::system.mem_ctrls.port      2856896                       # Cumulative packet size per connected master and slave (bytes)
system.membus.pkt_size::total                 2856896                       # Cumulative packet size per connected master and slave (bytes)
system.membus.snoops                                0                       # Total snoops (count)
system.membus.snoopTraffic                          0                       # Total snoop traffic (bytes)
system.membus.snoop_fanout::samples             39077                       # Request fanout histogram
system.membus.snoop_fanout::mean                    0                       # Request fanout histogram
system.membus.snoop_fanout::stdev                   0                       # Request fanout histogram
system.membus.snoop_fanout::underflows              0      0.00%      0.00% # Request fanout histogram
system.membus.snoop_fanout::0                   39077    100.00%    100.00% # Request fanout histogram
system.membus.snoop_fanout::1                       0      0.00%    100.00% # Request fanout histogram
system.membus.snoop_fanout::overflows               0      0.00%    100.00% # Request fanout histogram
system.membus.snoop_fanout::min_value               0                       # Request fanout histogram
system.membus.snoop_fanout::max_value               0                       # Request fanout histogram
system.membus.snoop_fanout::total               39077                       # Request fanout histogram
system.membus.respLayer1.occupancy          208477250                       # Layer occupancy (ticks)
system.membus.respLayer1.utilization              0.3                       # Layer utilization (%)
system.membus.reqLayer0.occupancy            75668500                       # Layer occupancy (ticks)
system.membus.reqLayer0.utilization               0.1                       # Layer utilization (%)
system.tol2bus.pwrStateResidencyTicks::UNDEFINED  66873332000                       # Cumulative time (in ticks) in various power states
system.tol2bus.trans_dist::ReadResp            656670                       # Transaction distribution
system.tol2bus.trans_dist::WritebackDirty        53156                       # Transaction distribution
system.tol2bus.trans_dist::WritebackClean       643524                       # Transaction distribution
system.tol2bus.trans_dist::CleanEvict            2808                       # Transaction distribution
system.tol2bus.trans_dist::ReadExReq            37982                       # Transaction distribution
system.tol2bus.trans_dist::ReadExResp           37982                       # Transaction distribution
system.tol2bus.trans_dist::ReadCleanReq        643974                       # Transaction distribution
system.tol2bus.trans_dist::ReadSharedReq        12697                       # Transaction distribution
system.tol2bus.pkt_count_system.cpu.icache.mem_side::system.l2.cpu_side      1931471                       # Packet count per connected master and slave (bytes)
system.tol2bus.pkt_count_system.cpu.dcache.mem_side::system.l2.cpu_side       151013                       # Packet count per connected master and slave (bytes)
system.tol2bus.pkt_count::total               2082484                       # Packet count per connected master and slave (bytes)
system.tol2bus.pkt_size_system.cpu.icache.mem_side::system.l2.cpu_side     82399808                       # Cumulative packet size per connected master and slave (bytes)
system.tol2bus.pkt_size_system.cpu.dcache.mem_side::system.l2.cpu_side      6289472                       # Cumulative packet size per connected master and slave (bytes)
system.tol2bus.pkt_size::total               88689280                       # Cumulative packet size per connected master and slave (bytes)
system.tol2bus.snoops                            6309                       # Total snoops (count)
system.tol2bus.snoopTraffic                    355968                       # Total snoop traffic (bytes)
system.tol2bus.snoop_fanout::samples           700962                       # Request fanout histogram
system.tol2bus.snoop_fanout::mean            0.001230                       # Request fanout histogram
system.tol2bus.snoop_fanout::stdev           0.035289                       # Request fanout histogram
system.tol2bus.snoop_fanout::underflows             0      0.00%      0.00% # Request fanout histogram
system.tol2bus.snoop_fanout::0                 700106     99.88%     99.88% # Request fanout histogram
system.tol2bus.snoop_fanout::1                    850      0.12%    100.00% # Request fanout histogram
system.tol2bus.snoop_fanout::2                      6      0.00%    100.00% # Request fanout histogram
system.tol2bus.snoop_fanout::overflows              0      0.00%    100.00% # Request fanout histogram
system.tol2bus.snoop_fanout::min_value              0                       # Request fanout histogram
system.tol2bus.snoop_fanout::max_value              2                       # Request fanout histogram
system.tol2bus.snoop_fanout::total             700962                       # Request fanout histogram
system.tol2bus.reqLayer0.occupancy         1385034000                       # Layer occupancy (ticks)
system.tol2bus.reqLayer0.utilization              2.1                       # Layer utilization (%)
system.tol2bus.respLayer1.occupancy          76023490                       # Layer occupancy (ticks)
system.tol2bus.respLayer1.utilization             0.1                       # Layer utilization (%)
system.tol2bus.respLayer0.occupancy         965960498                       # Layer occupancy (ticks)
system.tol2bus.respLayer0.utilization             1.4                       # Layer utilization (%)
system.voltage_domain.voltage                       1                       # Voltage in Volts
system.clk_domain.clock                          1000                       # Clock period in ticks
system.l2.pwrStateResidencyTicks::UNDEFINED  66873332000                       # Cumulative time (in ticks) in various power states
system.l2.demand_hits::.cpu.inst               643323                       # number of demand (read+write) hits
system.l2.demand_hits::.cpu.data                12241                       # number of demand (read+write) hits
system.l2.demand_hits::total                   655564                       # number of demand (read+write) hits
system.l2.overall_hits::.cpu.inst              643323                       # number of overall hits
system.l2.overall_hits::.cpu.data               12241                       # number of overall hits
system.l2.overall_hits::total                  655564                       # number of overall hits
system.l2.demand_misses::.cpu.inst                651                       # number of demand (read+write) misses
system.l2.demand_misses::.cpu.data              38438                       # number of demand (read+write) misses
system.l2.demand_misses::total                  39089                       # number of demand (read+write) misses
system.l2.overall_misses::.cpu.inst               651                       # number of overall misses
system.l2.overall_misses::.cpu.data             38438                       # number of overall misses
system.l2.overall_misses::total                 39089                       # number of overall misses
system.l2.demand_miss_latency::.cpu.inst     49295000                       # number of demand (read+write) miss cycles
system.l2.demand_miss_latency::.cpu.data   3034485000                       # number of demand (read+write) miss cycles
system.l2.demand_miss_latency::total       3083780000                       # number of demand (read+write) miss cycles
system.l2.overall_miss_latency::.cpu.inst     49295000                       # number of overall miss cycles
system.l2.overall_miss_latency::.cpu.data   3034485000                       # number of overall miss cycles
system.l2.overall_miss_latency::total      3083780000                       # number of overall miss cycles
system.l2.demand_accesses::.cpu.inst           643974                       # number of demand (read+write) accesses
system.l2.demand_accesses::.cpu.data            50679                       # number of demand (read+write) accesses
system.l2.demand_accesses::total               694653                       # number of demand (read+write) accesses
system.l2.overall_accesses::.cpu.inst          643974                       # number of overall (read+write) accesses
system.l2.overall_accesses::.cpu.data           50679                       # number of overall (read+write) accesses
system.l2.overall_accesses::total              694653                       # number of overall (read+write) accesses
system.l2.demand_miss_rate::.cpu.inst        0.001011                       # miss rate for demand accesses
system.l2.demand_miss_rate::.cpu.data        0.758460                       # miss rate for demand accesses
system.l2.demand_miss_rate::total            0.056271                       # miss rate for demand accesses
system.l2.overall_miss_rate::.cpu.inst       0.001011                       # miss rate for overall accesses
system.l2.overall_miss_rate::.cpu.data       0.758460                       # miss rate for overall accesses
system.l2.overall_miss_rate::total           0.056271                       # miss rate for overall accesses
system.l2.demand_avg_miss_latency::.cpu.inst 75721.966206                       # average overall miss latency
system.l2.demand_avg_miss_latency::.cpu.data 78944.924294                       # average overall miss latency
system.l2.demand_avg_miss_latency::total 78891.248177                       # average overall miss latency
system.l2.overall_avg_miss_latency::.cpu.inst 75721.966206                       # average overall miss latency
system.l2.overall_avg_miss_latency::.cpu.data 78944.924294                       # average overall miss latency
system.l2.overall_avg_miss_latency::total 78891.248177                       # average overall miss latency
system.l2.blocked_cycles::no_mshrs                  0                       # number of cycles access was blocked
system.l2.blocked_cycles::no_targets                0                       # number of cycles access was blocked
system.l2.blocked::no_mshrs                         0                       # number of cycles access was blocked
system.l2.blocked::no_targets                       0                       # number of cycles access was blocked
system.l2.avg_blocked_cycles::no_mshrs            nan                       # average number of cycles each access was blocked
system.l2.avg_blocked_cycles::no_targets          nan                       # average number of cycles each access was blocked
system.l2.writebacks::.writebacks                5562                       # number of writebacks
system.l2.writebacks::total                      5562                       # number of writebacks
system.l2.demand_mshr_hits::.cpu.inst               2                       # number of demand (read+write) MSHR hits
system.l2.demand_mshr_hits::.cpu.data              10                       # number of demand (read+write) MSHR hits
system.l2.demand_mshr_hits::total                  12                       # number of demand (read+write) MSHR hits
system.l2.overall_mshr_hits::.cpu.inst              2                       # number of overall MSHR hits
system.l2.overall_mshr_hits::.cpu.data             10                       # number of overall MSHR hits
system.l2.overall_mshr_hits::total                 12                       # number of overall MSHR hits
system.l2.demand_mshr_misses::.cpu.inst           649                       # number of demand (read+write) MSHR misses
system.l2.demand_mshr_misses::.cpu.data         38428                       # number of demand (read+write) MSHR misses
system.l2.demand_mshr_misses::total             39077                       # number of demand (read+write) MSHR misses
system.l2.overall_mshr_misses::.cpu.inst          649                       # number of overall MSHR misses
system.l2.overall_mshr_misses::.cpu.data        38428                       # number of overall MSHR misses
system.l2.overall_mshr_misses::total            39077                       # number of overall MSHR misses
system.l2.demand_mshr_miss_latency::.cpu.inst     42667000                       # number of demand (read+write) MSHR miss cycles
system.l2.demand_mshr_miss_latency::.cpu.data   2649512000                       # number of demand (read+write) MSHR miss cycles
system.l2.demand_mshr_miss_latency::total   2692179000                       # number of demand (read+write) MSHR miss cycles
system.l2.overall_mshr_miss_latency::.cpu.inst     42667000                       # number of overall MSHR miss cycles
system.l2.overall_mshr_miss_latency::.cpu.data   2649512000                       # number of overall MSHR miss cycles
system.l2.overall_mshr_miss_latency::total   2692179000                       # number of overall MSHR miss cycles
system.l2.demand_mshr_miss_rate::.cpu.inst     0.001008                       # mshr miss rate for demand accesses
system.l2.demand_mshr_miss_rate::.cpu.data     0.758263                       # mshr miss rate for demand accesses
system.l2.demand_mshr_miss_rate::total       0.056254                       # mshr miss rate for demand accesses
system.l2.overall_mshr_miss_rate::.cpu.inst     0.001008                       # mshr miss rate for overall accesses
system.l2.overall_mshr_miss_rate::.cpu.data     0.758263                       # mshr miss rate for overall accesses
system.l2.overall_mshr_miss_rate::total      0.056254                       # mshr miss rate for overall accesses
system.l2.demand_avg_mshr_miss_latency::.cpu.inst 65742.681048                       # average overall mshr miss latency
system.l2.demand_avg_mshr_miss_latency::.cpu.data 68947.434163                       # average overall mshr miss latency
system.l2.demand_avg_mshr_miss_latency::total 68894.208870                       # average overall mshr miss latency
system.l2.overall_avg_mshr_miss_latency::.cpu.inst 65742.681048                       # average overall mshr miss latency
system.l2.overall_avg_mshr_miss_latency::.cpu.data 68947.434163                       # average overall mshr miss latency
system.l2.overall_avg_mshr_miss_latency::total 68894.208870                       # average overall mshr miss latency
system.l2.replacements                           6309                       # number of replacements
system.l2.WritebackDirty_hits::.writebacks        47594                       # number of WritebackDirty hits
system.l2.WritebackDirty_hits::total            47594                       # number of WritebackDirty hits
system.l2.WritebackDirty_accesses::.writebacks        47594                       # number of WritebackDirty accesses(hits+misses)
system.l2.WritebackDirty_accesses::total        47594                       # number of WritebackDirty accesses(hits+misses)
system.l2.WritebackClean_hits::.writebacks       643220                       # number of WritebackClean hits
system.l2.WritebackClean_hits::total           643220                       # number of WritebackClean hits
system.l2.WritebackClean_accesses::.writebacks       643220                       # number of WritebackClean accesses(hits+misses)
system.l2.WritebackClean_accesses::total       643220                       # number of WritebackClean accesses(hits+misses)
system.l2.ReadExReq_hits::.cpu.data                 9                       # number of ReadExReq hits
system.l2.ReadExReq_hits::total                     9                       # number of ReadExReq hits
system.l2.ReadExReq_misses::.cpu.data           37973                       # number of ReadExReq misses
system.l2.ReadExReq_misses::total               37973                       # number of ReadExReq misses
system.l2.ReadExReq_miss_latency::.cpu.data   2993731000                       # number of ReadExReq miss cycles
system.l2.ReadExReq_miss_latency::total    2993731000                       # number of ReadExReq miss cycles
system.l2.ReadExReq_accesses::.cpu.data         37982                       # number of ReadExReq accesses(hits+misses)
system.l2.ReadExReq_accesses::total             37982                       # number of ReadExReq accesses(hits+misses)
system.l2.ReadExReq_miss_rate::.cpu.data     0.999763                       # miss rate for ReadExReq accesses
system.l2.ReadExReq_miss_rate::total         0.999763                       # miss rate for ReadExReq accesses
system.l2.ReadExReq_avg_miss_latency::.cpu.data 78838.411503                       # average ReadExReq miss latency
system.l2.ReadExReq_avg_miss_latency::total 78838.411503                       # average ReadExReq miss latency
system.l2.ReadExReq_mshr_misses::.cpu.data        37973                       # number of ReadExReq MSHR misses
system.l2.ReadExReq_mshr_misses::total          37973                       # number of ReadExReq MSHR misses
system.l2.ReadExReq_mshr_miss_latency::.cpu.data   2614001000                       # number of ReadExReq MSHR miss cycles
system.l2.ReadExReq_mshr_miss_latency::total   2614001000                       # number of ReadExReq MSHR miss cycles
system.l2.ReadExReq_mshr_miss_rate::.cpu.data     0.999763                       # mshr miss rate for ReadExReq accesses
system.l2.ReadExReq_mshr_miss_rate::total     0.999763                       # mshr miss rate for ReadExReq accesses
system.l2.ReadExReq_avg_mshr_miss_latency::.cpu.data 68838.411503                       # average ReadExReq mshr miss latency
system.l2.ReadExReq_avg_mshr_miss_latency::total 68838.411503                       # average ReadExReq mshr miss latency
system.l2.ReadCleanReq_hits::.cpu.inst         643323                       # number of ReadCleanReq hits
system.l2.ReadCleanReq_hits::total             643323                       # number of ReadCleanReq hits
system.l2.ReadCleanReq_misses::.cpu.inst          651                       # number of ReadCleanReq misses
system.l2.ReadCleanReq_misses::total              651                       # number of ReadCleanReq misses
system.l2.ReadCleanReq_miss_latency::.cpu.inst     49295000                       # number of ReadCleanReq miss cycles
system.l2.ReadCleanReq_miss_latency::total     49295000                       # number of ReadCleanReq miss cycles
system.l2.ReadCleanReq_accesses::.cpu.inst       643974                       # number of ReadCleanReq accesses(hits+misses)
system.l2.ReadCleanReq_accesses::total         643974                       # number of ReadCleanReq accesses(hits+misses)
system.l2.ReadCleanReq_miss_rate::.cpu.inst     0.001011                       # miss rate for ReadCleanReq accesses
system.l2.ReadCleanReq_miss_rate::total      0.001011                       # miss rate for ReadCleanReq accesses
system.l2.ReadCleanReq_avg_miss_latency::.cpu.inst 75721.966206                       # average ReadCleanReq miss latency
system.l2.ReadCleanReq_avg_miss_latency::total 75721.966206                       # average ReadCleanReq miss latency
system.l2.ReadCleanReq_mshr_hits::.cpu.inst            2                       # number of ReadCleanReq MSHR hits
system.l2.ReadCleanReq_mshr_hits::total             2                       # number of ReadCleanReq MSHR hits
system.l2.ReadCleanReq_mshr_misses::.cpu.inst          649                       # number of ReadCleanReq MSHR misses
system.l2.ReadCleanReq_mshr_misses::total          649                       # number of ReadCleanReq MSHR misses
system.l2.ReadCleanReq_mshr_miss_latency::.cpu.inst     42667000                       # number of ReadCleanReq MSHR miss cycles
system.l2.ReadCleanReq_mshr_miss_latency::total     42667000                       # number of ReadCleanReq MSHR miss cycles
system.l2.ReadCleanReq_mshr_miss_rate::.cpu.inst     0.001008                       # mshr miss rate for ReadCleanReq accesses
system.l2.ReadCleanReq_mshr_miss_rate::total     0.001008                       # mshr miss rate for ReadCleanReq accesses
system.l2.ReadCleanReq_avg_mshr_miss_latency::.cpu.inst 65742.681048                       # average ReadCleanReq mshr miss latency
system.l2.ReadCleanReq_avg_mshr_miss_latency::total 65742.681048                       # average ReadCleanReq mshr miss latency
system.l2.ReadSharedReq_hits::.cpu.data         12232                       # number of ReadSharedReq hits
system.l2.ReadSharedReq_hits::total             12232                       # number of ReadSharedReq hits
system.l2.ReadSharedReq_misses::.cpu.data          465                       # number of ReadSharedReq misses
system.l2.ReadSharedReq_misses::total             465                       # number of ReadSharedReq misses
system.l2.ReadSharedReq_miss_latency::.cpu.data     40754000                       # number of ReadSharedReq miss cycles
system.l2.ReadSharedReq_miss_latency::total     40754000                       # number of ReadSharedReq miss cycles
system.l2.ReadSharedReq_accesses::.cpu.data        12697                       # number of ReadSharedReq accesses(hits+misses)
system.l2.ReadSharedReq_accesses::total         12697                       # number of ReadSharedReq accesses(hits+misses)
system.l2.ReadSharedReq_miss_rate::.cpu.data     0.036623                       # miss rate for ReadSharedReq accesses
system.l2.ReadSharedReq_miss_rate::total     0.036623                       # miss rate for ReadSharedReq accesses
system.l2.ReadSharedReq_avg_miss_latency::.cpu.data 87643.010753                       # average ReadSharedReq miss latency
system.l2.ReadSharedReq_avg_miss_latency::total 87643.010753                       # average ReadSharedReq miss latency
system.l2.ReadSharedReq_mshr_hits::.cpu.data           10                       # number of ReadSharedReq MSHR hits
system.l2.ReadSharedReq_mshr_hits::total           10                       # number of ReadSharedReq MSHR hits
system.l2.ReadSharedReq_mshr_misses::.cpu.data          455                       # number of ReadSharedReq MSHR misses
system.l2.ReadSharedReq_mshr_misses::total          455                       # number of ReadSharedReq MSHR misses
system.l2.ReadSharedReq_mshr_miss_latency::.cpu.data     35511000                       # number of ReadSharedReq MSHR miss cycles
system.l2.ReadSharedReq_mshr_miss_latency::total     35511000                       # number of ReadSharedReq MSHR miss cycles
system.l2.ReadSharedReq_mshr_miss_rate::.cpu.data     0.035835                       # mshr miss rate for ReadSharedReq accesses
system.l2.ReadSharedReq_mshr_miss_rate::total     0.035835                       # mshr miss rate for ReadSharedReq accesses
system.l2.ReadSharedReq_avg_mshr_miss_latency::.cpu.data 78046.153846                       # average ReadSharedReq mshr miss latency
system.l2.ReadSharedReq_avg_mshr_miss_latency::total 78046.153846                       # average ReadSharedReq mshr miss latency
system.l2.tags.pwrStateResidencyTicks::UNDEFINED  66873332000                       # Cumulative time (in ticks) in various power states
system.l2.tags.tagsinuse                 25964.483075                       # Cycle average of tags in use
system.l2.tags.total_refs                     1387422                       # Total number of references to valid blocks.
system.l2.tags.sampled_refs                     39077                       # Sample count of references to valid blocks.
system.l2.tags.avg_refs                     35.504824                       # Average number of references to valid blocks.
system.l2.tags.warmup_cycle                     77000                       # Cycle when the warmup percentage was hit.
system.l2.tags.occ_blocks::.cpu.inst       477.793731                       # Average occupied blocks per requestor
system.l2.tags.occ_blocks::.cpu.data     25486.689344                       # Average occupied blocks per requestor
system.l2.tags.occ_percent::.cpu.inst        0.014581                       # Average percentage of cache occupancy
system.l2.tags.occ_percent::.cpu.data        0.777792                       # Average percentage of cache occupancy
system.l2.tags.occ_percent::total            0.792373                       # Average percentage of cache occupancy
system.l2.tags.occ_task_id_blocks::1024         32768                       # Occupied blocks per task id
system.l2.tags.age_task_id_blocks_1024::0            3                       # Occupied blocks per task id
system.l2.tags.age_task_id_blocks_1024::1           32                       # Occupied blocks per task id
system.l2.tags.age_task_id_blocks_1024::2          305                       # Occupied blocks per task id
system.l2.tags.age_task_id_blocks_1024::3         2996                       # Occupied blocks per task id
system.l2.tags.age_task_id_blocks_1024::4        29432                       # Occupied blocks per task id
system.l2.tags.occ_task_id_percent::1024            1                       # Percentage of cache occupancy per task id
system.l2.tags.tag_accesses                  11138549                       # Number of tag accesses
system.l2.tags.data_accesses                 11138549                       # Number of data accesses
system.cpu_voltage_domain.voltage                   1                       # Voltage in Volts
system.mem_ctrls.pwrStateResidencyTicks::UNDEFINED  66873332000                       # Cumulative time (in ticks) in various power states
system.mem_ctrls.bytes_read::.cpu.inst          41536                       # Number of bytes read from this memory
system.mem_ctrls.bytes_read::.cpu.data        2459392                       # Number of bytes read from this memory
system.mem_ctrls.bytes_read::total            2500928                       # Number of bytes read from this memory
system.mem_ctrls.bytes_inst_read::.cpu.inst        41536                       # Number of instructions bytes read from this memory
system.mem_ctrls.bytes_inst_read::total         41536                       # Number of instructions bytes read from this memory
system.mem_ctrls.bytes_written::.writebacks       355968                       # Number of bytes written to this memory
system.mem_ctrls.bytes_written::total          355968                       # Number of bytes written to this memory
system.mem_ctrls.num_reads::.cpu.inst             649                       # Number of read requests responded to by this memory
system.mem_ctrls.num_reads::.cpu.data           38428                       # Number of read requests responded to by this memory
system.mem_ctrls.num_reads::total               39077                       # Number of read requests responded to by this memory
system.mem_ctrls.num_writes::.writebacks         5562                       # Number of write requests responded to by this memory
system.mem_ctrls.num_writes::total               5562                       # Number of write requests responded to by this memory
system.mem_ctrls.bw_read::.cpu.inst            621115                       # Total read bandwidth from this memory (bytes/s)
system.mem_ctrls.bw_read::.cpu.data          36776872                       # Total read bandwidth from this memory (bytes/s)
system.mem_ctrls.bw_read::total              37397987                       # Total read bandwidth from this memory (bytes/s)
system.mem_ctrls.bw_inst_read::.cpu.inst       621115                       # Instruction read bandwidth from this memory (bytes/s)
system.mem_ctrls.bw_inst_read::total           621115                       # Instruction read bandwidth from this memory (bytes/s)
system.mem_ctrls.bw_write::.writebacks        5323019                       # Write bandwidth from this memory (bytes/s)
system.mem_ctrls.bw_write::total              5323019                       # Write bandwidth from this memory (bytes/s)
system.mem_ctrls.bw_total::.writebacks        5323019                       # Total bandwidth to/from this memory (bytes/s)
system.mem_ctrls.bw_total::.cpu.inst           621115                       # Total bandwidth to/from this memory (bytes/s)
system.mem_ctrls.bw_total::.cpu.data         36776872                       # Total bandwidth to/from this memory (bytes/s)
system.mem_ctrls.bw_total::total             42721006                       # Total bandwidth to/from this memory (bytes/s)
system.mem_ctrls.avgPriority_.writebacks::samples      5562.00                       # Average QoS priority value for accepted requests
system.mem_ctrls.avgPriority_.cpu.inst::samples       649.00                       # Average QoS priority value for accepted requests
system.mem_ctrls.avgPriority_.cpu.data::samples     38426.00                       # Average QoS priority value for accepted requests
system.mem_ctrls.priorityMinLatency      0.000000018750                       # per QoS priority minimum request to response latency (s)
system.mem_ctrls.priorityMaxLatency      0.012733824250                       # per QoS priority maximum request to response latency (s)
system.mem_ctrls.numReadWriteTurnArounds          308                       # Number of turnarounds from READ to WRITE
system.mem_ctrls.numWriteReadTurnArounds          308                       # Number of turnarounds from WRITE to READ
system.mem_ctrls.numStayReadState              100874                       # Number of times bus staying in READ state
system.mem_ctrls.numStayWriteState               5243                       # Number of times bus staying in WRITE state
system.mem_ctrls.readReqs                       39077                       # Number of read requests accepted
system.mem_ctrls.writeReqs                       5562                       # Number of write requests accepted
system.mem_ctrls.readBursts                     39077                       # Number of DRAM read bursts, including those serviced by the write queue
system.mem_ctrls.writeBursts                     5562                       # Number of DRAM write bursts, including those merged in the write queue
system.mem_ctrls.servicedByWrQ                      2                       # Number of DRAM read bursts serviced by the write queue
system.mem_ctrls.mergedWrBursts                     0                       # Number of DRAM write bursts merged with an existing one
system.mem_ctrls.neitherReadNorWriteReqs            0                       # Number of requests that are neither read nor write
system.mem_ctrls.perBankRdBursts::0              2444                       # Per bank write bursts
system.mem_ctrls.perBankRdBursts::1              2388                       # Per bank write bursts
system.mem_ctrls.perBankRdBursts::2              2456                       # Per bank write bursts
system.mem_ctrls.perBankRdBursts::3              2699                       # Per bank write bursts
system.mem_ctrls.perBankRdBursts::4              2512                       # Per bank write bursts
system.mem_ctrls.perBankRdBursts::5              2528                       # Per bank write bursts
system.mem_ctrls.perBankRdBursts::6              2529                       # Per bank write bursts
system.mem_ctrls.perBankRdBursts::7              2450                       # Per bank write bursts
system.mem_ctrls.perBankRdBursts::8              2448                       # Per bank write bursts
system.mem_ctrls.perBankRdBursts::9              2417                       # Per bank write bursts
system.mem_ctrls.perBankRdBursts::10             2315                       # Per bank write bursts
system.mem_ctrls.perBankRdBursts::11             2364                       # Per bank write bursts
system.mem_ctrls.perBankRdBursts::12             2363                       # Per bank write bursts
system.mem_ctrls.perBankRdBursts::13             2414                       # Per bank write bursts
system.mem_ctrls.perBankRdBursts::14             2403                       # Per bank write bursts
system.mem_ctrls.perBankRdBursts::15             2345                       # Per bank write bursts
system.mem_ctrls.perBankWrBursts::0               282                       # Per bank write bursts
system.mem_ctrls.perBankWrBursts::1               280                       # Per bank write bursts
system.mem_ctrls.perBankWrBursts::2               340                       # Per bank write bursts
system.mem_ctrls.perBankWrBursts::3               612                       # Per bank write bursts
system.mem_ctrls.perBankWrBursts::4               446                       # Per bank write bursts
system.mem_ctrls.perBankWrBursts::5               394                       # Per bank write bursts
system.mem_ctrls.perBankWrBursts::6               394                       # Per bank write bursts
system.mem_ctrls.perBankWrBursts::7               392                       # Per bank write bursts
system.mem_ctrls.perBankWrBursts::8               397                       # Per bank write bursts
system.mem_ctrls.perBankWrBursts::9               344                       # Per bank write bursts
system.mem_ctrls.perBankWrBursts::10              267                       # Per bank write bursts
system.mem_ctrls.perBankWrBursts::11              273                       # Per bank write bursts
system.mem_ctrls.perBankWrBursts::12              269                       # Per bank write bursts
system.mem_ctrls.perBankWrBursts::13              280                       # Per bank write bursts
system.mem_ctrls.perBankWrBursts::14              294                       # Per bank write bursts
system.mem_ctrls.perBankWrBursts::15              283                       # Per bank write bursts
system.mem_ctrls.avgRdQLen                       1.00                       # Average read queue length when enqueuing
system.mem_ctrls.avgWrQLen                      11.90                       # Average write queue length when enqueuing
system.mem_ctrls.totQLat                    355316750                       # Total ticks spent queuing
system.mem_ctrls.totBusLat                  195375000                       # Total ticks spent in databus transfers
system.mem_ctrls.totMemAccLat              1087973000                       # Total ticks spent from burst creation until serviced by the DRAM
system.mem_ctrls.avgQLat                      9093.20                       # Average queueing delay per DRAM burst
system.mem_ctrls.avgBusLat                    5000.00                       # Average bus latency per DRAM burst
system.mem_ctrls.avgMemAccLat                27843.20                       # Average memory access latency per DRAM burst
system.mem_ctrls.numRdRetry                         0                       # Number of times read queue was full causing retry
system.mem_ctrls.numWrRetry                         0                       # Number of times write queue was full causing retry
system.mem_ctrls.readRowHits                    26458                       # Number of row buffer hits during reads
system.mem_ctrls.writeRowHits                    4767                       # Number of row buffer hits during writes
system.mem_ctrls.readRowHitRate                 67.71                       # Row buffer hit rate for reads
system.mem_ctrls.writeRowHitRate                85.71                       # Row buffer hit rate for writes
system.mem_ctrls.readPktSize::0                     0                       # Read request sizes (log2)
system.mem_ctrls.readPktSize::1                     0                       # Read request sizes (log2)
system.mem_ctrls.readPktSize::2                     0                       # Read request sizes (log2)
system.mem_ctrls.readPktSize::3                     0                       # Read request sizes (log2)
system.mem_ctrls.readPktSize::4                     0                       # Read request sizes (log2)
system.mem_ctrls.readPktSize::5                     0                       # Read request sizes (log2)
system.mem_ctrls.readPktSize::6                 39077                       # Read request sizes (log2)
system.mem_ctrls.writePktSize::0                    0                       # Write request sizes (log2)
system.mem_ctrls.writePktSize::1                    0                       # Write request sizes (log2)
system.mem_ctrls.writePktSize::2                    0                       # Write request sizes (log2)
system.mem_ctrls.writePktSize::3                    0                       # Write request sizes (log2)
system.mem_ctrls.writePktSize::4                    0                       # Write request sizes (log2)
system.mem_ctrls.writePktSize::5                    0                       # Write request sizes (log2)
system.mem_ctrls.writePktSize::6                 5562                       # Write request sizes (log2)
system.mem_ctrls.rdQLenPdf::0                   38839                       # What read queue length does an incoming req see
system.mem_ctrls.rdQLenPdf::1                     223                       # What read queue length does an incoming req see
system.mem_ctrls.rdQLenPdf::2                      12                       # What read queue length does an incoming req see
system.mem_ctrls.rdQLenPdf::3                       1                       # What read queue length does an incoming req see
system.mem_ctrls.rdQLenPdf::4                       0                       # What read queue length does an incoming req see
system.mem_ctrls.rdQLenPdf::5                       0                       # What read queue length does an incoming req see
system.mem_ctrls.rdQLenPdf::6                       0                       # What read queue length does an incoming req see
system.mem_ctrls.rdQLenPdf::7                       0                       # What read queue length does an incoming req see
system.mem_ctrls.rdQLenPdf::8                       0                       # What read queue length does an incoming req see
system.mem_ctrls.rdQLenPdf::9                       0                       # What read queue length does an incoming req see
system.mem_ctrls.rdQLenPdf::10                      0                       # What read queue length does an incoming req see
system.mem_ctrls.rdQLenPdf::11                      0                       # What read queue length does an incoming req see
system.mem_ctrls.rdQLenPdf::12                      0                       # What read queue length does an incoming req see
system.mem_ctrls.rdQLenPdf::13                      0                       # What read queue length does an incoming req see
system.mem_ctrls.rdQLenPdf::14                      0                       # What read queue length does an incoming req see
system.mem_ctrls.rdQLenPdf::15                      0                       # What read queue length does an incoming req see
system.mem_ctrls.rdQLenPdf::16                      0                       # What read queue length does an incoming req see
system.mem_ctrls.rdQLenPdf::17                      0                       # What read queue length does an incoming req see
system.mem_ctrls.rdQLenPdf::18                      0                       # What read queue length does an incoming req see
system.mem_ctrls.rdQLenPdf::19                      0                       # What read queue length does an incoming req see
system.mem_ctrls.rdQLenPdf::20                      0                       # What read queue length does an incoming req see
system.mem_ctrls.rdQLenPdf::21                      0                       # What read queue length does an incoming req see
system.mem_ctrls.rdQLenPdf::22                      0                       # What read queue length does an incoming req see
system.mem_ctrls.rdQLenPdf::23                      0                       # What read queue length does an incoming req see
system.mem_ctrls.rdQLenPdf::24                      0                       # What read queue length does an incoming req see
system.mem_ctrls.rdQLenPdf::25                      0                       # What read queue length does an incoming req see
system.mem_ctrls.rdQLenPdf::26                      0                       # What read queue length does an incoming req see
system.mem_ctrls.rdQLenPdf::27                      0                       # What read queue length does an incoming req see
system.mem_ctrls.rdQLenPdf::28                      0                       # What read queue length does an incoming req see
system.mem_ctrls.rdQLenPdf::29                      0                       # What read queue length does an incoming req see
system.mem_ctrls.rdQLenPdf::30                      0                       # What read queue length does an incoming req see
system.mem_ctrls.rdQLenPdf::31                      0                       # What read queue length does an incoming req see
system.mem_ctrls.wrQLenPdf::0                       1                       # What write queue length does an incoming req see
system.mem_ctrls.wrQLenPdf::1                       1                       # What write queue length does an incoming req see
system.mem_ctrls.wrQLenPdf::2                       1                       # What write queue length does an incoming req see
system.mem_ctrls.wrQLenPdf::3                       1                       # What write queue length does an incoming req see
system.mem_ctrls.wrQLenPdf::4                       1                       # What write queue length does an incoming req see
system.mem_ctrls.wrQLenPdf::5                       1                       # What write queue length does an incoming req see
system.mem_ctrls.wrQLenPdf::6                       1                       # What write queue length does an incoming req see
system.mem_ctrls.wrQLenPdf::7                       1                       # What write queue length does an incoming req see
system.mem_ctrls.wrQLenPdf::8                       1                       # What write queue length does an incoming req see
system.mem_ctrls.wrQLenPdf::9                       1                       # What write queue length does an incoming req see
system.mem_ctrls.wrQLenPdf::10                      1                       # What write queue length does an incoming req see
system.mem_ctrls.wrQLenPdf::11                      1                       # What write queue length does an incoming req see
system.mem_ctrls.wrQLenPdf::12                      1                       # What write queue length does an incoming req see
system.mem_ctrls.wrQLenPdf::13                      1                       # What write queue length does an incoming req see
system.mem_ctrls.wrQLenPdf::14                      1                       # What write queue length does an incoming req see
system.mem_ctrls.wrQLenPdf::15                    308                       # What write queue length does an incoming req see
system.mem_ctrls.wrQLenPdf::16                    308                       # What write queue length does an incoming req see
system.mem_ctrls.wrQLenPdf::17                    308                       # What write queue length does an incoming req see
system.mem_ctrls.wrQLenPdf::18                    308                       # What write queue length does an incoming req see
system.mem_ctrls.wrQLenPdf::19                    308                       # What write queue length does an incoming req see
system.mem_ctrls.wrQLenPdf::20                    308                       # What write queue length does an incoming req see
system.mem_ctrls.wrQLenPdf::21                    308                       # What write queue length does an incoming req see
system.mem_ctrls.wrQLenPdf::22                    308                       # What write queue length does an incoming req see
system.mem_ctrls.wrQLenPdf::23                    310                       # What write queue length does an incoming req see
system.mem_ctrls.wrQLenPdf::24                    308                       # What write queue length does an incoming req see
system.mem_ctrls.wrQLenPdf::25                    308                       # What write queue length does an incoming req see
system.mem_ctrls.wrQLenPdf::26                    308                       # What write queue length does an incoming req see
system.mem_ctrls.wrQLenPdf::27                    309                       # What write queue length does an incoming req see
system.mem_ctrls.wrQLenPdf::28                    308                       # What write queue length does an incoming req see
system.mem_ctrls.wrQLenPdf::29                    308                       # What write queue length does an incoming req see
system.mem_ctrls.wrQLenPdf::30                    308                       # What write queue length does an incoming req see
system.mem_ctrls.wrQLenPdf::31                    308                       # What write queue length does an incoming req see
system.mem_ctrls.wrQLenPdf::32                    308                       # What write queue length does an incoming req see
system.mem_ctrls.wrQLenPdf::33                      0                       # What write queue length does an incoming req see
system.mem_ctrls.wrQLenPdf::34                      0                       # What write queue length does an incoming req see
system.mem_ctrls.wrQLenPdf::35                      0                       # What write queue length does an incoming req see
system.mem_ctrls.wrQLenPdf::36                      0                       # What write queue length does an incoming req see
system.mem_ctrls.wrQLenPdf::37                      0                       # What write queue length does an incoming req see
system.mem_ctrls.wrQLenPdf::38                      0                       # What write queue length does an incoming req see
system.mem_ctrls.wrQLenPdf::39                      0                       # What write queue length does an incoming req see
system.mem_ctrls.wrQLenPdf::40                      0                       # What write queue length does an incoming req see
system.mem_ctrls.wrQLenPdf::41                      0                       # What write queue length does an incoming req see
system.mem_ctrls.wrQLenPdf::42                      0                       # What write queue length does an incoming req see
system.mem_ctrls.wrQLenPdf::43                      0                       # What write queue length does an incoming req see
system.mem_ctrls.wrQLenPdf::44                      0                       # What write queue length does an incoming req see
system.mem_ctrls.wrQLenPdf::45                      0                       # What write queue length does an incoming req see
system.mem_ctrls.wrQLenPdf::46                      0                       # What write queue length does an incoming req see
system.mem_ctrls.wrQLenPdf::47                      0                       # What write queue length does an incoming req see
system.mem_ctrls.wrQLenPdf::48                      0                       # What write queue length does an incoming req see
system.mem_ctrls.wrQLenPdf::49                      0                       # What write queue length does an incoming req see
system.mem_ctrls.wrQLenPdf::50                      0                       # What write queue length does an incoming req see
system.mem_ctrls.wrQLenPdf::51                      0                       # What write queue length does an incoming req see
system.mem_ctrls.wrQLenPdf::52                      0                       # What write queue length does an incoming req see
system.mem_ctrls.wrQLenPdf::53                      0                       # What write queue length does an incoming req see
system.mem_ctrls.wrQLenPdf::54                      0                       # What write queue length does an incoming req see
system.mem_ctrls.wrQLenPdf::55                      0                       # What write queue length does an incoming req see
system.mem_ctrls.wrQLenPdf::56                      0                       # What write queue length does an incoming req see
system.mem_ctrls.wrQLenPdf::57                      0                       # What write queue length does an incoming req see
system.mem_ctrls.wrQLenPdf::58                      0                       # What write queue length does an incoming req see
system.mem_ctrls.wrQLenPdf::59                      0                       # What write queue length does an incoming req see
system.mem_ctrls.wrQLenPdf::60                      0                       # What write queue length does an incoming req see
system.mem_ctrls.wrQLenPdf::61                      0                       # What write queue length does an incoming req see
system.mem_ctrls.wrQLenPdf::62                      0                       # What write queue length does an incoming req see
system.mem_ctrls.wrQLenPdf::63                      0                       # What write queue length does an incoming req see
system.mem_ctrls.bytesPerActivate::samples        13393                       # Bytes accessed per row activation
system.mem_ctrls.bytesPerActivate::mean    213.145374                       # Bytes accessed per row activation
system.mem_ctrls.bytesPerActivate::gmean   175.595464                       # Bytes accessed per row activation
system.mem_ctrls.bytesPerActivate::stdev   159.401505                       # Bytes accessed per row activation
system.mem_ctrls.bytesPerActivate::0-127         1676     12.51%     12.51% # Bytes accessed per row activation
system.mem_ctrls.bytesPerActivate::128-255         8026     59.93%     72.44% # Bytes accessed per row activation
system.mem_ctrls.bytesPerActivate::256-383         2227     16.63%     89.07% # Bytes accessed per row activation
system.mem_ctrls.bytesPerActivate::384-511          464      3.46%     92.53% # Bytes accessed per row activation
system.mem_ctrls.bytesPerActivate::512-639          694      5.18%     97.72% # Bytes accessed per row activation
system.mem_ctrls.bytesPerActivate::640-767           39      0.29%     98.01% # Bytes accessed per row activation
system.mem_ctrls.bytesPerActivate::768-895           42      0.31%     98.32% # Bytes accessed per row activation
system.mem_ctrls.bytesPerActivate::896-1023           37      0.28%     98.60% # Bytes accessed per row activation
system.mem_ctrls.bytesPerActivate::1024-1151          188      1.40%    100.00% # Bytes accessed per row activation
system.mem_ctrls.bytesPerActivate::total        13393                       # Bytes accessed per row activation
system.mem_ctrls.rdPerTurnAround::samples          308                       # Reads before turning the bus around for writes
system.mem_ctrls.rdPerTurnAround::mean     126.866883                       # Reads before turning the bus around for writes
system.mem_ctrls.rdPerTurnAround::gmean     20.035084                       # Reads before turning the bus around for writes
system.mem_ctrls.rdPerTurnAround::stdev   1668.166672                       # Reads before turning the bus around for writes
system.mem_ctrls.rdPerTurnAround::0-1023          306     99.35%     99.35% # Reads before turning the bus around for writes
system.mem_ctrls.rdPerTurnAround::1024-2047            1      0.32%     99.68% # Reads before turning the bus around for writes
system.mem_ctrls.rdPerTurnAround::28672-29695            1      0.32%    100.00% # Reads before turning the bus around for writes
system.mem_ctrls.rdPerTurnAround::total           308                       # Reads before turning the bus around for writes
system.mem_ctrls.wrPerTurnAround::samples          308                       # Writes before turning the bus around for reads
system.mem_ctrls.wrPerTurnAround::mean      18.009740                       # Writes before turning the bus around for reads
system.mem_ctrls.wrPerTurnAround::gmean     18.009482                       # Writes before turning the bus around for reads
[...]
system.cpu.icache.ReadReq_mshr_misses::total       643974                       # number of ReadReq MSHR misses
system.cpu.icache.ReadReq_mshr_miss_latency::.cpu.inst   7770461000                       # number of ReadReq MSHR miss cycles
system.cpu.icache.ReadReq_mshr_miss_latency::total   7770461000                       # number of ReadReq MSHR miss cycles
system.cpu.icache.ReadReq_mshr_miss_rate::.cpu.inst     0.020323                       # mshr miss rate for ReadReq accesses
system.cpu.icache.ReadReq_mshr_miss_rate::total     0.020323                       # mshr miss rate for ReadReq accesses
system.cpu.icache.ReadReq_avg_mshr_miss_latency::.cpu.inst 12066.420383                       # average ReadReq mshr miss latency
system.cpu.icache.ReadReq_avg_mshr_miss_latency::total 12066.420383                       # average ReadReq mshr miss latency
system.cpu.icache.tags.pwrStateResidencyTicks::UNDEFINED  66873332000                       # Cumulative time (in ticks) in various power states
system.cpu.icache.tags.tagsinuse           448.137185                       # Cycle average of tags in use
system.cpu.icache.tags.total_refs            31687011                       # Total number of references to valid blocks.
system.cpu.icache.tags.sampled_refs            643973                       # Sample count of references to valid blocks.
system.cpu.icache.tags.avg_refs             49.205496                       # Average number of references to valid blocks.
system.cpu.icache.tags.warmup_cycle             87500                       # Cycle when the warmup percentage was hit.
system.cpu.icache.tags.occ_blocks::.cpu.inst   448.137185                       # Average occupied blocks per requestor
system.cpu.icache.tags.occ_percent::.cpu.inst     0.875268                       # Average percentage of cache occupancy
system.cpu.icache.tags.occ_percent::total     0.875268                       # Average percentage of cache occupancy
system.cpu.icache.tags.occ_task_id_blocks::1024          449                       # Occupied blocks per task id
system.cpu.icache.tags.age_task_id_blocks_1024::0           10                       # Occupied blocks per task id
system.cpu.icache.tags.age_task_id_blocks_1024::2            3                       # Occupied blocks per task id
system.cpu.icache.tags.age_task_id_blocks_1024::4          436                       # Occupied blocks per task id
system.cpu.icache.tags.occ_task_id_percent::1024     0.876953                       # Percentage of cache occupancy per task id
system.cpu.icache.tags.tag_accesses          64017997                       # Number of tag accesses
system.cpu.icache.tags.data_accesses         64017997                       # Number of data accesses
system.cpu.dtb.walker.pwrStateResidencyTicks::UNDEFINED  66873332000                       # Cumulative time (in ticks) in various power states
system.cpu.dtb.stage2_mmu.stage2_tlb.walker.pwrStateResidencyTicks::UNDEFINED  66873332000                       # Cumulative time (in ticks) in various power states
system.cpu.dcache.pwrStateResidencyTicks::UNDEFINED  66873332000                       # Cumulative time (in ticks) in various power states
system.cpu.dcache.demand_hits::.cpu.data     36004994                       # number of demand (read+write) hits
system.cpu.dcache.demand_hits::total         36004994                       # number of demand (read+write) hits
system.cpu.dcache.overall_hits::.cpu.data     36051038                       # number of overall hits
system.cpu.dcache.overall_hits::total        36051038                       # number of overall hits
system.cpu.dcache.demand_misses::.cpu.data        67222                       # number of demand (read+write) misses
system.cpu.dcache.demand_misses::total          67222                       # number of demand (read+write) misses
system.cpu.dcache.overall_misses::.cpu.data        67252                       # number of overall misses
system.cpu.dcache.overall_misses::total         67252                       # number of overall misses
system.cpu.dcache.demand_miss_latency::.cpu.data   4371409500                       # number of demand (read+write) miss cycles
system.cpu.dcache.demand_miss_latency::total   4371409500                       # number of demand (read+write) miss cycles
system.cpu.dcache.overall_miss_latency::.cpu.data   4371409500                       # number of overall miss cycles
system.cpu.dcache.overall_miss_latency::total   4371409500                       # number of overall miss cycles
system.cpu.dcache.demand_accesses::.cpu.data     36072216                       # number of demand (read+write) accesses
system.cpu.dcache.demand_accesses::total     36072216                       # number of demand (read+write) accesses
system.cpu.dcache.overall_accesses::.cpu.data     36118290                       # number of overall (read+write) accesses
system.cpu.dcache.overall_accesses::total     36118290                       # number of overall (read+write) accesses
system.cpu.dcache.demand_miss_rate::.cpu.data     0.001864                       # miss rate for demand accesses
system.cpu.dcache.demand_miss_rate::total     0.001864                       # miss rate for demand accesses
system.cpu.dcache.overall_miss_rate::.cpu.data     0.001862                       # miss rate for overall accesses
system.cpu.dcache.overall_miss_rate::total     0.001862                       # miss rate for overall accesses
system.cpu.dcache.demand_avg_miss_latency::.cpu.data 65029.447205                       # average overall miss latency
system.cpu.dcache.demand_avg_miss_latency::total 65029.447205                       # average overall miss latency
system.cpu.dcache.overall_avg_miss_latency::.cpu.data 65000.438649                       # average overall miss latency
system.cpu.dcache.overall_avg_miss_latency::total 65000.438649                       # average overall miss latency
system.cpu.dcache.blocked_cycles::no_mshrs            0                       # number of cycles access was blocked
system.cpu.dcache.blocked_cycles::no_targets            0                       # number of cycles access was blocked
system.cpu.dcache.blocked::no_mshrs                 0                       # number of cycles access was blocked
system.cpu.dcache.blocked::no_targets               0                       # number of cycles access was blocked
system.cpu.dcache.avg_blocked_cycles::no_mshrs          nan                       # average number of cycles each access was blocked
system.cpu.dcache.avg_blocked_cycles::no_targets          nan                       # average number of cycles each access was blocked
system.cpu.dcache.writebacks::.writebacks        47594                       # number of writebacks
system.cpu.dcache.writebacks::total             47594                       # number of writebacks
system.cpu.dcache.demand_mshr_hits::.cpu.data        16564                       # number of demand (read+write) MSHR hits
system.cpu.dcache.demand_mshr_hits::total        16564                       # number of demand (read+write) MSHR hits
system.cpu.dcache.overall_mshr_hits::.cpu.data        16564                       # number of overall MSHR hits
system.cpu.dcache.overall_mshr_hits::total        16564                       # number of overall MSHR hits
system.cpu.dcache.demand_mshr_misses::.cpu.data        50658                       # number of demand (read+write) MSHR misses
system.cpu.dcache.demand_mshr_misses::total        50658                       # number of demand (read+write) MSHR misses
system.cpu.dcache.overall_mshr_misses::.cpu.data        50679                       # number of overall MSHR misses
system.cpu.dcache.overall_mshr_misses::total        50679                       # number of overall MSHR misses
system.cpu.dcache.demand_mshr_miss_latency::.cpu.data   3238301000                       # number of demand (read+write) MSHR miss cycles
system.cpu.dcache.demand_mshr_miss_latency::total   3238301000                       # number of demand (read+write) MSHR miss cycles
system.cpu.dcache.overall_mshr_miss_latency::.cpu.data   3239123500                       # number of overall MSHR miss cycles
system.cpu.dcache.overall_mshr_miss_latency::total   3239123500                       # number of overall MSHR miss cycles
system.cpu.dcache.demand_mshr_miss_rate::.cpu.data     0.001404                       # mshr miss rate for demand accesses
system.cpu.dcache.demand_mshr_miss_rate::total     0.001404                       # mshr miss rate for demand accesses
system.cpu.dcache.overall_mshr_miss_rate::.cpu.data     0.001403                       # mshr miss rate for overall accesses
system.cpu.dcache.overall_mshr_miss_rate::total     0.001403                       # mshr miss rate for overall accesses
system.cpu.dcache.demand_avg_mshr_miss_latency::.cpu.data 63924.770026                       # average overall mshr miss latency
system.cpu.dcache.demand_avg_mshr_miss_latency::total 63924.770026                       # average overall mshr miss latency
system.cpu.dcache.overall_avg_mshr_miss_latency::.cpu.data 63914.510941                       # average overall mshr miss latency
system.cpu.dcache.overall_avg_mshr_miss_latency::total 63914.510941                       # average overall mshr miss latency
system.cpu.dcache.replacements                  49655                       # number of replacements
system.cpu.dcache.ReadReq_hits::.cpu.data     21756845                       # number of ReadReq hits
system.cpu.dcache.ReadReq_hits::total        21756845                       # number of ReadReq hits
system.cpu.dcache.ReadReq_misses::.cpu.data        12727                       # number of ReadReq misses
system.cpu.dcache.ReadReq_misses::total         12727                       # number of ReadReq misses
system.cpu.dcache.ReadReq_miss_latency::.cpu.data    202239500                       # number of ReadReq miss cycles
system.cpu.dcache.ReadReq_miss_latency::total    202239500                       # number of ReadReq miss cycles
system.cpu.dcache.ReadReq_accesses::.cpu.data     21769572                       # number of ReadReq accesses(hits+misses)
system.cpu.dcache.ReadReq_accesses::total     21769572                       # number of ReadReq accesses(hits+misses)
system.cpu.dcache.ReadReq_miss_rate::.cpu.data     0.000585                       # miss rate for ReadReq accesses
system.cpu.dcache.ReadReq_miss_rate::total     0.000585                       # miss rate for ReadReq accesses
system.cpu.dcache.ReadReq_avg_miss_latency::.cpu.data 15890.586941                       # average ReadReq miss latency
system.cpu.dcache.ReadReq_avg_miss_latency::total 15890.586941                       # average ReadReq miss latency
system.cpu.dcache.ReadReq_mshr_hits::.cpu.data           51                       # number of ReadReq MSHR hits
system.cpu.dcache.ReadReq_mshr_hits::total           51                       # number of ReadReq MSHR hits
system.cpu.dcache.ReadReq_mshr_misses::.cpu.data        12676                       # number of ReadReq MSHR misses
system.cpu.dcache.ReadReq_mshr_misses::total        12676                       # number of ReadReq MSHR misses
system.cpu.dcache.ReadReq_mshr_miss_latency::.cpu.data    187501000                       # number of ReadReq MSHR miss cycles
system.cpu.dcache.ReadReq_mshr_miss_latency::total    187501000                       # number of ReadReq MSHR miss cycles
system.cpu.dcache.ReadReq_mshr_miss_rate::.cpu.data     0.000582                       # mshr miss rate for ReadReq accesses
system.cpu.dcache.ReadReq_mshr_miss_rate::total     0.000582                       # mshr miss rate for ReadReq accesses
system.cpu.dcache.ReadReq_avg_mshr_miss_latency::.cpu.data 14791.811297                       # average ReadReq mshr miss latency
system.cpu.dcache.ReadReq_avg_mshr_miss_latency::total 14791.811297                       # average ReadReq mshr miss latency
system.cpu.dcache.WriteReq_hits::.cpu.data     14248149                       # number of WriteReq hits
system.cpu.dcache.WriteReq_hits::total       14248149                       # number of WriteReq hits
system.cpu.dcache.WriteReq_misses::.cpu.data        54495                       # number of WriteReq misses
system.cpu.dcache.WriteReq_misses::total        54495                       # number of WriteReq misses
system.cpu.dcache.WriteReq_miss_latency::.cpu.data   4169170000                       # number of WriteReq miss cycles
system.cpu.dcache.WriteReq_miss_latency::total   4169170000                       # number of WriteReq miss cycles
system.cpu.dcache.WriteReq_accesses::.cpu.data     14302644                       # number of WriteReq accesses(hits+misses)
system.cpu.dcache.WriteReq_accesses::total     14302644                       # number of WriteReq accesses(hits+misses)
system.cpu.dcache.WriteReq_miss_rate::.cpu.data     0.003810                       # miss rate for WriteReq accesses
system.cpu.dcache.WriteReq_miss_rate::total     0.003810                       # miss rate for WriteReq accesses
system.cpu.dcache.WriteReq_avg_miss_latency::.cpu.data 76505.550968                       # average WriteReq miss latency
system.cpu.dcache.WriteReq_avg_miss_latency::total 76505.550968                       # average WriteReq miss latency
system.cpu.dcache.WriteReq_mshr_hits::.cpu.data        16513                       # number of WriteReq MSHR hits
system.cpu.dcache.WriteReq_mshr_hits::total        16513                       # number of WriteReq MSHR hits
system.cpu.dcache.WriteReq_mshr_misses::.cpu.data        37982                       # number of WriteReq MSHR misses
system.cpu.dcache.WriteReq_mshr_misses::total        37982                       # number of WriteReq MSHR misses
system.cpu.dcache.WriteReq_mshr_miss_latency::.cpu.data   3050800000                       # number of WriteReq MSHR miss cycles
system.cpu.dcache.WriteReq_mshr_miss_latency::total   3050800000                       # number of WriteReq MSHR miss cycles
system.cpu.dcache.WriteReq_mshr_miss_rate::.cpu.data     0.002656                       # mshr miss rate for WriteReq accesses
system.cpu.dcache.WriteReq_mshr_miss_rate::total     0.002656                       # mshr miss rate for WriteReq accesses
system.cpu.dcache.WriteReq_avg_mshr_miss_latency::.cpu.data 80322.257912                       # average WriteReq mshr miss latency
system.cpu.dcache.WriteReq_avg_mshr_miss_latency::total 80322.257912                       # average WriteReq mshr miss latency
system.cpu.dcache.SoftPFReq_hits::.cpu.data        46044                       # number of SoftPFReq hits
system.cpu.dcache.SoftPFReq_hits::total         46044                       # number of SoftPFReq hits
system.cpu.dcache.SoftPFReq_misses::.cpu.data           30                       # number of SoftPFReq misses
system.cpu.dcache.SoftPFReq_misses::total           30                       # number of SoftPFReq misses
system.cpu.dcache.SoftPFReq_accesses::.cpu.data        46074                       # number of SoftPFReq accesses(hits+misses)
system.cpu.dcache.SoftPFReq_accesses::total        46074                       # number of SoftPFReq accesses(hits+misses)
system.cpu.dcache.SoftPFReq_miss_rate::.cpu.data     0.000651                       # miss rate for SoftPFReq accesses
system.cpu.dcache.SoftPFReq_miss_rate::total     0.000651                       # miss rate for SoftPFReq accesses
system.cpu.dcache.SoftPFReq_mshr_misses::.cpu.data           21                       # number of SoftPFReq MSHR misses
system.cpu.dcache.SoftPFReq_mshr_misses::total           21                       # number of SoftPFReq MSHR misses
system.cpu.dcache.SoftPFReq_mshr_miss_latency::.cpu.data       822500                       # number of SoftPFReq MSHR miss cycles
system.cpu.dcache.SoftPFReq_mshr_miss_latency::total       822500                       # number of SoftPFReq MSHR miss cycles
system.cpu.dcache.SoftPFReq_mshr_miss_rate::.cpu.data     0.000456                       # mshr miss rate for SoftPFReq accesses
system.cpu.dcache.SoftPFReq_mshr_miss_rate::total     0.000456                       # mshr miss rate for SoftPFReq accesses
system.cpu.dcache.SoftPFReq_avg_mshr_miss_latency::.cpu.data 39166.666667                       # average SoftPFReq mshr miss latency
system.cpu.dcache.SoftPFReq_avg_mshr_miss_latency::total 39166.666667                       # average SoftPFReq mshr miss latency
system.cpu.dcache.LoadLockedReq_hits::.cpu.data        85768                       # number of LoadLockedReq hits
system.cpu.dcache.LoadLockedReq_hits::total        85768                       # number of LoadLockedReq hits
system.cpu.dcache.LoadLockedReq_accesses::.cpu.data        85768                       # number of LoadLockedReq accesses(hits+misses)
system.cpu.dcache.LoadLockedReq_accesses::total        85768                       # number of LoadLockedReq accesses(hits+misses)
system.cpu.dcache.StoreCondReq_hits::.cpu.data        85768                       # number of StoreCondReq hits
system.cpu.dcache.StoreCondReq_hits::total        85768                       # number of StoreCondReq hits
system.cpu.dcache.StoreCondReq_accesses::.cpu.data        85768                       # number of StoreCondReq accesses(hits+misses)
system.cpu.dcache.StoreCondReq_accesses::total        85768                       # number of StoreCondReq accesses(hits+misses)
system.cpu.dcache.tags.pwrStateResidencyTicks::UNDEFINED  66873332000                       # Cumulative time (in ticks) in various power states
system.cpu.dcache.tags.tagsinuse          1020.955121                       # Cycle average of tags in use
system.cpu.dcache.tags.total_refs            36273253                       # Total number of references to valid blocks.
system.cpu.dcache.tags.sampled_refs             50679                       # Sample count of references to valid blocks.
system.cpu.dcache.tags.avg_refs            715.745240                       # Average number of references to valid blocks.
system.cpu.dcache.tags.warmup_cycle            195500                       # Cycle when the warmup percentage was hit.
system.cpu.dcache.tags.occ_blocks::.cpu.data  1020.955121                       # Average occupied blocks per requestor
system.cpu.dcache.tags.occ_percent::.cpu.data     0.997026                       # Average percentage of cache occupancy
system.cpu.dcache.tags.occ_percent::total     0.997026                       # Average percentage of cache occupancy
system.cpu.dcache.tags.occ_task_id_blocks::1024         1024                       # Occupied blocks per task id
system.cpu.dcache.tags.age_task_id_blocks_1024::0            4                       # Occupied blocks per task id
system.cpu.dcache.tags.age_task_id_blocks_1024::1           40                       # Occupied blocks per task id
system.cpu.dcache.tags.age_task_id_blocks_1024::2          383                       # Occupied blocks per task id
system.cpu.dcache.tags.age_task_id_blocks_1024::3          517                       # Occupied blocks per task id
system.cpu.dcache.tags.age_task_id_blocks_1024::4           80                       # Occupied blocks per task id
system.cpu.dcache.tags.occ_task_id_percent::1024            1                       # Percentage of cache occupancy per task id
system.cpu.dcache.tags.tag_accesses         145209983                       # Number of tag accesses
system.cpu.dcache.tags.data_accesses        145209983                       # Number of data accesses
system.cpu.itb.walker.pwrStateResidencyTicks::UNDEFINED  66873332000                       # Cumulative time (in ticks) in various power states
system.cpu.itb.stage2_mmu.stage2_tlb.walker.pwrStateResidencyTicks::UNDEFINED  66873332000                       # Cumulative time (in ticks) in various power states

---------- End Simulation Statistics   ----------
