
---------- Begin Simulation Statistics ----------
final_tick                                30598537500                       # Number of ticks from beginning of simulation (restored from checkpoints and never reset)
host_inst_rate                                  39642                       # Simulator instruction rate (inst/s)
host_mem_usage                                 684984                       # Number of bytes of host memory used
host_op_rate                                    57820                       # Simulator op (including micro ops) rate (op/s)
host_seconds                                   252.26                       # Real time elapsed on the host
host_tick_rate                              121299344                       # Simulator tick rate (ticks/s)
sim_freq                                 1000000000000                       # Frequency of simulated ticks
sim_insts                                    10000000                       # Number of instructions simulated
sim_ops                                      14585430                       # Number of ops (including micro ops) simulated
sim_seconds                                  0.030599                       # Number of seconds simulated
sim_ticks                                 30598537500                       # Number of ticks simulated
system.cpu.branchPred.BTBCorrect                    0                       # Number of correct BTB predictions (this stat may not work properly.
system.cpu.branchPred.BTBHitPct             99.569521                       # BTB Hit Percentage
system.cpu.branchPred.BTBHits                  610399                       # Number of BTB hits
system.cpu.branchPred.BTBLookups               613038                       # Number of BTB lookups
system.cpu.branchPred.RASInCorrect                  5                       # Number of incorrect RAS predictions.
system.cpu.branchPred.condIncorrect               934                       # Number of conditional branches incorrect
system.cpu.branchPred.condPredicted            609576                       # Number of conditional branches predicted
system.cpu.branchPred.indirectHits                 14                       # Number of indirect target hits.
system.cpu.branchPred.indirectLookups             110                       # Number of indirect predictor lookups.
system.cpu.branchPred.indirectMisses               96                       # Number of indirect misses.
system.cpu.branchPred.lookups                  616503                       # Number of BP lookups
system.cpu.branchPred.usedRAS                    2303                       # Number of times the RAS was used to get a target.
system.cpu.branchPredindirectMispredicted           58                       # Number of mispredicted indirect branches.
system.cpu.committedInsts                    10000000                       # Number of instructions committed
system.cpu.committedOps                      14585430                       # Number of ops (including micro ops) committed
system.cpu.cpi                               6.119707                       # CPI: cycles per instruction
system.cpu.discardedOps                          2577                       # Number of ops (including micro ops) which were discarded before commit
system.cpu.dtb.accesses                             0                       # DTB accesses
system.cpu.dtb.align_faults                         0                       # Number of TLB faults due to alignment restrictions
system.cpu.dtb.domain_faults                        0                       # Number of TLB faults due to domain restrictions
system.cpu.dtb.flush_entries                        0                       # Number of entries that have been flushed from TLB
system.cpu.dtb.flush_tlb                            0                       # Number of times complete TLB was flushed
system.cpu.dtb.flush_tlb_asid                       0                       # Number of times TLB was flushed by ASID
system.cpu.dtb.flush_tlb_mva                        0                       # Number of times TLB was flushed by MVA
system.cpu.dtb.flush_tlb_mva_asid                   0                       # Number of times TLB was flushed by MVA & ASID
system.cpu.dtb.hits                                 0                       # DTB hits
system.cpu.dtb.inst_accesses                        0                       # ITB inst accesses
system.cpu.dtb.inst_hits                            0                       # ITB inst hits
system.cpu.dtb.inst_misses                          0                       # ITB inst misses
system.cpu.dtb.misses                               0                       # DTB misses
system.cpu.dtb.perms_faults                         0                       # Number of TLB faults due to permissions restrictions
system.cpu.dtb.prefetch_faults                      0                       # Number of TLB faults due to prefetch
system.cpu.dtb.read_accesses                        0                       # DTB read accesses
system.cpu.dtb.read_hits                            0                       # DTB read hits
system.cpu.dtb.read_misses                          0                       # DTB read misses
system.cpu.dtb.stage2_mmu.stage2_tlb.accesses            0                       # DTB accesses
system.cpu.dtb.stage2_mmu.stage2_tlb.align_faults            0                       # Number of TLB faults due to alignment restrictions
system.cpu.dtb.stage2_mmu.stage2_tlb.domain_faults            0                       # Number of TLB faults due to domain restrictions
system.cpu.dtb.stage2_mmu.stage2_tlb.flush_entries            0                       # Number of entries that have been flushed from TLB
system.cpu.dtb.stage2_mmu.stage2_tlb.flush_tlb            0                       # Number of times complete TLB was flushed
system.cpu.dtb.stage2_mmu.stage2_tlb.flush_tlb_asid            0                       # Number of times TLB was flushed by ASID
system.cpu.dtb.stage2_mmu.stage2_tlb.flush_tlb_mva            0                       # Number of times TLB was flushed by MVA
system.cpu.dtb.stage2_mmu.stage2_tlb.flush_tlb_mva_asid            0                       # Number of times TLB was flushed by MVA & ASID
system.cpu.dtb.stage2_mmu.stage2_tlb.hits            0                       # DTB hits
system.cpu.dtb.stage2_mmu.stage2_tlb.inst_accesses            0                       # ITB inst accesses
system.cpu.dtb.stage2_mmu.stage2_tlb.inst_hits            0                       # ITB inst hits
system.cpu.dtb.stage2_mmu.stage2_tlb.inst_misses            0                       # ITB inst misses
system.cpu.dtb.stage2_mmu.stage2_tlb.misses            0                       # DTB misses
system.cpu.dtb.stage2_mmu.stage2_tlb.perms_faults            0                       # Number of TLB faults due to permissions restrictions
system.cpu.dtb.stage2_mmu.stage2_tlb.prefetch_faults            0                       # Number of TLB faults due to prefetch
system.cpu.dtb.stage2_mmu.stage2_tlb.read_accesses            0                       # DTB read accesses
system.cpu.dtb.stage2_mmu.stage2_tlb.read_hits            0                       # DTB read hits
system.cpu.dtb.stage2_mmu.stage2_tlb.read_misses            0                       # DTB read misses
system.cpu.dtb.stage2_mmu.stage2_tlb.walker.walkRequestOrigin_Requested::Data            0                       # Table walker requests started/completed, data/inst
system.cpu.dtb.stage2_mmu.stage2_tlb.walker.walkRequestOrigin_Requested::Inst            0                       # Table walker requests started/completed, data/inst
system.cpu.dtb.stage2_mmu.stage2_tlb.walker.walkRequestOrigin_Requested::total            0                       # Table walker requests started/completed, data/inst
system.cpu.dtb.stage2_mmu.stage2_tlb.walker.walkRequestOrigin_Completed::Data            0                       # Table walker requests started/completed, data/inst
system.cpu.dtb.stage2_mmu.stage2_tlb.walker.walkRequestOrigin_Completed::Inst            0                       # Table walker requests started/completed, data/inst
system.cpu.dtb.stage2_mmu.stage2_tlb.walker.walkRequestOrigin_Completed::total            0                       # Table walker requests started/completed, data/inst
system.cpu.dtb.stage2_mmu.stage2_tlb.walker.walkRequestOrigin::total            0                       # Table walker requests started/completed, data/inst
system.cpu.dtb.stage2_mmu.stage2_tlb.walker.walks            0                       # Table walker walks requested
system.cpu.dtb.stage2_mmu.stage2_tlb.write_accesses            0                       # DTB write accesses
system.cpu.dtb.stage2_mmu.stage2_tlb.write_hits            0                       # DTB write hits
system.cpu.dtb.stage2_mmu.stage2_tlb.write_misses            0                       # DTB write misses
system.cpu.dtb.walker.walkRequestOrigin_Requested::Data            0                       # Table walker requests started/completed, data/inst
system.cpu.dtb.walker.walkRequestOrigin_Requested::Inst            0                       # Table walker requests started/completed, data/inst
system.cpu.dtb.walker.walkRequestOrigin_Requested::total            0                       # Table walker requests started/completed, data/inst
system.cpu.dtb.walker.walkRequestOrigin_Completed::Data            0                       # Table walker requests started/completed, data/inst
system.cpu.dtb.walker.walkRequestOrigin_Completed::Inst            0                       # Table walker requests started/completed, data/inst
system.cpu.dtb.walker.walkRequestOrigin_Completed::total            0                       # Table walker requests started/completed, data/inst
system.cpu.dtb.walker.walkRequestOrigin::total            0                       # Table walker requests started/completed, data/inst
system.cpu.dtb.walker.walks                         0                       # Table walker walks requested
system.cpu.dtb.write_accesses                       0                       # DTB write accesses
system.cpu.dtb.write_hits                           0                       # DTB write hits
system.cpu.dtb.write_misses                         0                       # DTB write misses
system.cpu.fetch2.amo_instructions                  0                       # Number of memory atomic instructions successfully decoded
system.cpu.fetch2.fp_instructions                   0                       # Number of floating point instructions successfully decoded
system.cpu.fetch2.int_instructions            4860081                       # Number of integer instructions successfully decoded
system.cpu.fetch2.load_instructions           2082217                       # Number of memory load instructions successfully decoded
system.cpu.fetch2.store_instructions           166785                       # Number of memory store instructions successfully decoded
system.cpu.fetch2.vec_instructions                  0                       # Number of SIMD instructions successfully decoded
system.cpu.idleCycles                        43989007                       # Total number of cycles that the object has spent stopped
system.cpu.ipc                               0.163407                       # IPC: instructions per cycle
system.cpu.itb.accesses                             0                       # DTB accesses
system.cpu.itb.align_faults                         0                       # Number of TLB faults due to alignment restrictions
system.cpu.itb.domain_faults                        0                       # Number of TLB faults due to domain restrictions
system.cpu.itb.flush_entries                        0                       # Number of entries that have been flushed from TLB
system.cpu.itb.flush_tlb                            0                       # Number of times complete TLB was flushed
system.cpu.itb.flush_tlb_asid                       0                       # Number of times TLB was flushed by ASID
system.cpu.itb.flush_tlb_mva                        0                       # Number of times TLB was flushed by MVA
system.cpu.itb.flush_tlb_mva_asid                   0                       # Number of times TLB was flushed by MVA & ASID
system.cpu.itb.hits                                 0                       # DTB hits
system.cpu.itb.inst_accesses                        0                       # ITB inst accesses
system.cpu.itb.inst_hits                            0                       # ITB inst hits
system.cpu.itb.inst_misses                          0                       # ITB inst misses
system.cpu.itb.misses                               0                       # DTB misses
system.cpu.itb.perms_faults                         0                       # Number of TLB faults due to permissions restrictions
system.cpu.itb.prefetch_faults                      0                       # Number of TLB faults due to prefetch
system.cpu.itb.read_accesses                        0                       # DTB read accesses
system.cpu.itb.read_hits                            0                       # DTB read hits
system.cpu.itb.read_misses                          0                       # DTB read misses
system.cpu.itb.stage2_mmu.stage2_tlb.accesses            0                       # DTB accesses
system.cpu.itb.stage2_mmu.stage2_tlb.align_faults            0                       # Number of TLB faults due to alignment restrictions
system.cpu.itb.stage2_mmu.stage2_tlb.domain_faults            0                       # Number of TLB faults due to domain restrictions
system.cpu.itb.stage2_mmu.stage2_tlb.flush_entries            0                       # Number of entries that have been flushed from TLB
system.cpu.itb.stage2_mmu.stage2_tlb.flush_tlb            0                       # Number of times complete TLB was flushed
system.cpu.itb.stage2_mmu.stage2_tlb.flush_tlb_asid            0                       # Number of times TLB was flushed by ASID
system.cpu.itb.stage2_mmu.stage2_tlb.flush_tlb_mva            0                       # Number of times TLB was flushed by MVA
system.cpu.itb.stage2_mmu.stage2_tlb.flush_tlb_mva_asid            0                       # Number of times TLB was flushed by MVA & ASID
system.cpu.itb.stage2_mmu.stage2_tlb.hits            0                       # DTB hits
system.cpu.itb.stage2_mmu.stage2_tlb.inst_accesses            0                       # ITB inst accesses
system.cpu.itb.stage2_mmu.stage2_tlb.inst_hits            0                       # ITB inst hits
system.cpu.itb.stage2_mmu.stage2_tlb.inst_misses            0                       # ITB inst misses
system.cpu.itb.stage2_mmu.stage2_tlb.misses            0                       # DTB misses
system.cpu.itb.stage2_mmu.stage2_tlb.perms_faults            0                       # Number of TLB faults due to permissions restrictions
system.cpu.itb.stage2_mmu.stage2_tlb.prefetch_faults            0                       # Number of TLB faults due to prefetch
system.cpu.itb.stage2_mmu.stage2_tlb.read_accesses            0                       # DTB read accesses
system.cpu.itb.stage2_mmu.stage2_tlb.read_hits            0                       # DTB read hits
system.cpu.itb.stage2_mmu.stage2_tlb.read_misses            0                       # DTB read misses
system.cpu.itb.stage2_mmu.stage2_tlb.walker.walkRequestOrigin_Requested::Data            0                       # Table walker requests started/completed, data/inst
system.cpu.itb.stage2_mmu.stage2_tlb.walker.walkRequestOrigin_Requested::Inst            0                       # Table walker requests started/completed, data/inst
system.cpu.itb.stage2_mmu.stage2_tlb.walker.walkRequestOrigin_Requested::total            0                       # Table walker requests started/completed, data/inst
system.cpu.itb.stage2_mmu.stage2_tlb.walker.walkRequestOrigin_Completed::Data            0                       # Table walker requests started/completed, data/inst
system.cpu.itb.stage2_mmu.stage2_tlb.walker.walkRequestOrigin_Completed::Inst            0                       # Table walker requests started/completed, data/inst
system.cpu.itb.stage2_mmu.stage2_tlb.walker.walkRequestOrigin_Completed::total            0                       # Table walker requests started/completed, data/inst
system.cpu.itb.stage2_mmu.stage2_tlb.walker.walkRequestOrigin::total            0                       # Table walker requests started/completed, data/inst
system.cpu.itb.stage2_mmu.stage2_tlb.walker.walks            0                       # Table walker walks requested
system.cpu.itb.stage2_mmu.stage2_tlb.write_accesses            0                       # DTB write accesses
system.cpu.itb.stage2_mmu.stage2_tlb.write_hits            0                       # DTB write hits
system.cpu.itb.stage2_mmu.stage2_tlb.write_misses            0                       # DTB write misses
system.cpu.itb.walker.walkRequestOrigin_Requested::Data            0                       # Table walker requests started/completed, data/inst
system.cpu.itb.walker.walkRequestOrigin_Requested::Inst            0                       # Table walker requests started/completed, data/inst
system.cpu.itb.walker.walkRequestOrigin_Requested::total            0                       # Table walker requests started/completed, data/inst
system.cpu.itb.walker.walkRequestOrigin_Completed::Data            0                       # Table walker requests started/completed, data/inst
system.cpu.itb.walker.walkRequestOrigin_Completed::Inst            0                       # Table walker requests started/completed, data/inst
system.cpu.itb.walker.walkRequestOrigin_Completed::total            0                       # Table walker requests started/completed, data/inst
system.cpu.itb.walker.walkRequestOrigin::total            0                       # Table walker requests started/completed, data/inst
system.cpu.itb.walker.walks                         0                       # Table walker walks requested
system.cpu.itb.write_accesses                       0                       # DTB write accesses
system.cpu.itb.write_hits                           0                       # DTB write hits
system.cpu.itb.write_misses                         0                       # DTB write misses
system.cpu.numCycles                         61197075                       # number of cpu cycles simulated
system.cpu.numFetchSuspends                         0                       # Number of times Execute suspended instruction fetching
system.cpu.numWorkItemsCompleted                    0                       # number of work items this cpu completed
system.cpu.numWorkItemsStarted                      0                       # number of work items this cpu started
system.cpu.op_class_0::No_OpClass                   0      0.00%      0.00% # Class of committed instruction
system.cpu.op_class_0::IntAlu                 7758693     53.19%     53.19% # Class of committed instruction
system.cpu.op_class_0::IntMult                      6      0.00%     53.19% # Class of committed instruction
system.cpu.op_class_0::IntDiv                       0      0.00%     53.19% # Class of committed instruction
system.cpu.op_class_0::FloatAdd                     0      0.00%     53.19% # Class of committed instruction
system.cpu.op_class_0::FloatCmp                     0      0.00%     53.19% # Class of committed instruction
system.cpu.op_class_0::FloatCvt                     0      0.00%     53.19% # Class of committed instruction
system.cpu.op_class_0::FloatMult                    0      0.00%     53.19% # Class of committed instruction
system.cpu.op_class_0::FloatMultAcc                 0      0.00%     53.19% # Class of committed instruction
system.cpu.op_class_0::FloatDiv                     0      0.00%     53.19% # Class of committed instruction
system.cpu.op_class_0::FloatMisc                    0      0.00%     53.19% # Class of committed instruction
system.cpu.op_class_0::FloatSqrt                    0      0.00%     53.19% # Class of committed instruction
system.cpu.op_class_0::SimdAdd                      0      0.00%     53.19% # Class of committed instruction
system.cpu.op_class_0::SimdAddAcc                   0      0.00%     53.19% # Class of committed instruction
system.cpu.op_class_0::SimdAlu                      0      0.00%     53.19% # Class of committed instruction
system.cpu.op_class_0::SimdCmp                      0      0.00%     53.19% # Class of committed instruction
system.cpu.op_class_0::SimdCvt                      0      0.00%     53.19% # Class of committed instruction
system.cpu.op_class_0::SimdMisc                     0      0.00%     53.19% # Class of committed instruction
system.cpu.op_class_0::SimdMult                     0      0.00%     53.19% # Class of committed instruction
system.cpu.op_class_0::SimdMultAcc                  0      0.00%     53.19% # Class of committed instruction
system.cpu.op_class_0::SimdShift                    0      0.00%     53.19% # Class of committed instruction
system.cpu.op_class_0::SimdShiftAcc                 0      0.00%     53.19% # Class of committed instruction
system.cpu.op_class_0::SimdDiv                      0      0.00%     53.19% # Class of committed instruction
system.cpu.op_class_0::SimdSqrt                     0      0.00%     53.19% # Class of committed instruction
system.cpu.op_class_0::SimdFloatAdd                 0      0.00%     53.19% # Class of committed instruction
system.cpu.op_class_0::SimdFloatAlu                 0      0.00%     53.19% # Class of committed instruction
system.cpu.op_class_0::SimdFloatCmp                 0      0.00%     53.19% # Class of committed instruction
system.cpu.op_class_0::SimdFloatCvt                 0      0.00%     53.19% # Class of committed instruction
system.cpu.op_class_0::SimdFloatDiv                 0      0.00%     53.19% # Class of committed instruction
system.cpu.op_class_0::SimdFloatMisc               18      0.00%     53.19% # Class of committed instruction
system.cpu.op_class_0::SimdFloatMult                0      0.00%     53.19% # Class of committed instruction
system.cpu.op_class_0::SimdFloatMultAcc             0      0.00%     53.19% # Class of committed instruction
system.cpu.op_class_0::SimdFloatSqrt                0      0.00%     53.19% # Class of committed instruction
system.cpu.op_class_0::SimdReduceAdd                0      0.00%     53.19% # Class of committed instruction
system.cpu.op_class_0::SimdReduceAlu                0      0.00%     53.19% # Class of committed instruction
system.cpu.op_class_0::SimdReduceCmp                0      0.00%     53.19% # Class of committed instruction
system.cpu.op_class_0::SimdFloatReduceAdd            0      0.00%     53.19% # Class of committed instruction
system.cpu.op_class_0::SimdFloatReduceCmp            0      0.00%     53.19% # Class of committed instruction
system.cpu.op_class_0::SimdAes                      0      0.00%     53.19% # Class of committed instruction
system.cpu.op_class_0::SimdAesMix                   0      0.00%     53.19% # Class of committed instruction
system.cpu.op_class_0::SimdSha1Hash                 0      0.00%     53.19% # Class of committed instruction
system.cpu.op_class_0::SimdSha1Hash2                0      0.00%     53.19% # Class of committed instruction
system.cpu.op_class_0::SimdSha256Hash               0      0.00%     53.19% # Class of committed instruction
system.cpu.op_class_0::SimdSha256Hash2              0      0.00%     53.19% # Class of committed instruction
system.cpu.op_class_0::SimdShaSigma2                0      0.00%     53.19% # Class of committed instruction
system.cpu.op_class_0::SimdShaSigma3                0      0.00%     53.19% # Class of committed instruction
system.cpu.op_class_0::SimdPredAlu                  0      0.00%     53.19% # Class of committed instruction
system.cpu.op_class_0::MemRead                2080034     14.26%     67.46% # Class of committed instruction
system.cpu.op_class_0::MemWrite               4746679     32.54%    100.00% # Class of committed instruction
system.cpu.op_class_0::FloatMemRead                 0      0.00%    100.00% # Class of committed instruction
system.cpu.op_class_0::FloatMemWrite                0      0.00%    100.00% # Class of committed instruction
system.cpu.op_class_0::IprAccess                    0      0.00%    100.00% # Class of committed instruction
system.cpu.op_class_0::InstPrefetch                 0      0.00%    100.00% # Class of committed instruction
system.cpu.op_class_0::total                 14585430                       # Class of committed instruction
system.cpu.tickCycles                        17208068                       # Number of cycles that the object actually ticked
system.cpu.workload.numSyscalls                    11                       # Number of system calls
system.membus.snoop_filter.hit_multi_requests            0                       # Number of requests hitting in the snoop filter with multiple (>1) holders of the requested data.
system.membus.snoop_filter.hit_multi_snoops            0                       # Number of snoops hitting in the snoop filter with multiple (>1) holders of the requested data.
system.membus.snoop_filter.hit_single_requests       256198                       # Number of requests hitting in the snoop filter with a single holder of the requested data.
system.membus.snoop_filter.hit_single_snoops            0                       # Number of snoops hitting in the snoop filter with a single holder of the requested data.
system.membus.snoop_filter.tot_requests        545489                       # Total number of requests made to the snoop filter.
system.membus.snoop_filter.tot_snoops               0                       # Total number of snoops made to the snoop filter.
system.tol2bus.snoop_filter.hit_multi_requests           65                       # Number of requests hitting in the snoop filter with multiple (>1) holders of the requested data.
system.tol2bus.snoop_filter.hit_multi_snoops            0                       # Number of snoops hitting in the snoop filter with multiple (>1) holders of the requested data.
system.tol2bus.snoop_filter.hit_single_requests       288102                       # Number of requests hitting in the snoop filter with a single holder of the requested data.
system.tol2bus.snoop_filter.hit_single_snoops          325                       # Number of snoops hitting in the snoop filter with a single holder of the requested data.
system.tol2bus.snoop_filter.tot_requests       577553                       # Total number of requests made to the snoop filter.
system.tol2bus.snoop_filter.tot_snoops            325                       # Total number of snoops made to the snoop filter.
system.membus.pwrStateResidencyTicks::UNDEFINED  30598537500                       # Cumulative time (in ticks) in various power states
system.membus.trans_dist::ReadResp                671                       # Transaction distribution
system.membus.trans_dist::WritebackDirty       255866                       # Transaction distribution
system.membus.trans_dist::CleanEvict              332                       # Transaction distribution
system.membus.trans_dist::ReadExReq            288620                       # Transaction distribution
system.membus.trans_dist::ReadExResp           288620                       # Transaction distribution
system.membus.trans_dist::ReadSharedReq           671                       # Transaction distribution
system.membus.pkt_count_system.l2.mem_side::system.mem_ctrls.port       834780                       # Packet count per connected master and slave (bytes)
system.membus.pkt_count::total                 834780                       # Packet count per connected master and slave (bytes)
system.membus.pkt_size_system.l2.mem_side::system.mem_ctrls.port     34890048                       # Cumulative packet size per connected master and slave (bytes)
system.membus.pkt_size::total                34890048                       # Cumulative packet size per connected master and slave (bytes)
system.membus.snoops                                0                       # Total snoops (count)
system.membus.snoopTraffic                          0                       # Total snoop traffic (bytes)
system.membus.snoop_fanout::samples            289291                       # Request fanout histogram
system.membus.snoop_fanout::mean                    0                       # Request fanout histogram
system.membus.snoop_fanout::stdev                   0                       # Request fanout histogram
system.membus.snoop_fanout::underflows              0      0.00%      0.00% # Request fanout histogram
system.membus.snoop_fanout::0                  289291    100.00%    100.00% # Request fanout histogram
system.membus.snoop_fanout::1                       0      0.00%    100.00% # Request fanout histogram
system.membus.snoop_fanout::overflows               0      0.00%    100.00% # Request fanout histogram
system.membus.snoop_fanout::min_value               0                       # Request fanout histogram
system.membus.snoop_fanout::max_value               0                       # Request fanout histogram
system.membus.snoop_fanout::total              289291                       # Request fanout histogram
system.membus.respLayer1.occupancy         1521917500                       # Layer occupancy (ticks)
system.membus.respLayer1.utilization              5.0                       # Layer utilization (%)
system.membus.reqLayer0.occupancy          1569336500                       # Layer occupancy (ticks)
system.membus.reqLayer0.utilization               5.1                       # Layer utilization (%)
system.tol2bus.pwrStateResidencyTicks::UNDEFINED  30598537500                       # Cumulative time (in ticks) in various power states
system.tol2bus.trans_dist::ReadResp               818                       # Transaction distribution
system.tol2bus.trans_dist::WritebackDirty       543501                       # Transaction distribution
system.tol2bus.trans_dist::WritebackClean          244                       # Transaction distribution
system.tol2bus.trans_dist::CleanEvict             880                       # Transaction distribution
system.tol2bus.trans_dist::ReadExReq           288633                       # Transaction distribution
system.tol2bus.trans_dist::ReadExResp          288633                       # Transaction distribution
system.tol2bus.trans_dist::ReadCleanReq           569                       # Transaction distribution
system.tol2bus.trans_dist::ReadSharedReq          249                       # Transaction distribution
system.tol2bus.pkt_count_system.cpu.icache.mem_side::system.l2.cpu_side         1382                       # Packet count per connected master and slave (bytes)
system.tol2bus.pkt_count_system.cpu.dcache.mem_side::system.l2.cpu_side       865622                       # Packet count per connected master and slave (bytes)
system.tol2bus.pkt_count::total                867004                       # Packet count per connected master and slave (bytes)
system.tol2bus.pkt_size_system.cpu.icache.mem_side::system.l2.cpu_side        52032                       # Cumulative packet size per connected master and slave (bytes)
system.tol2bus.pkt_size_system.cpu.dcache.mem_side::system.l2.cpu_side     36897088                       # Cumulative packet size per connected master and slave (bytes)
system.tol2bus.pkt_size::total               36949120                       # Cumulative packet size per connected master and slave (bytes)
system.tol2bus.snoops                          256523                       # Total snoops (count)
system.tol2bus.snoopTraffic                  16375424                       # Total snoop traffic (bytes)
system.tol2bus.snoop_fanout::samples           545974                       # Request fanout histogram
system.tol2bus.snoop_fanout::mean            0.000714                       # Request fanout histogram
system.tol2bus.snoop_fanout::stdev           0.026717                       # Request fanout histogram
system.tol2bus.snoop_fanout::underflows             0      0.00%      0.00% # Request fanout histogram
system.tol2bus.snoop_fanout::0                 545584     99.93%     99.93% # Request fanout histogram
system.tol2bus.snoop_fanout::1                    390      0.07%    100.00% # Request fanout histogram
system.tol2bus.snoop_fanout::2                      0      0.00%    100.00% # Request fanout histogram
system.tol2bus.snoop_fanout::overflows              0      0.00%    100.00% # Request fanout histogram
system.tol2bus.snoop_fanout::min_value              0                       # Request fanout histogram
system.tol2bus.snoop_fanout::max_value              1                       # Request fanout histogram
system.tol2bus.snoop_fanout::total             545974                       # Request fanout histogram
system.tol2bus.reqLayer0.occupancy          576655500                       # Layer occupancy (ticks)
system.tol2bus.reqLayer0.utilization              1.9                       # Layer utilization (%)
system.tol2bus.respLayer1.occupancy         433326992                       # Layer occupancy (ticks)
system.tol2bus.respLayer1.utilization             1.4                       # Layer utilization (%)
system.tol2bus.respLayer0.occupancy            854498                       # Layer occupancy (ticks)
system.tol2bus.respLayer0.utilization             0.0                       # Layer utilization (%)
system.voltage_domain.voltage                       1                       # Voltage in Volts
system.clk_domain.clock                          1000                       # Clock period in ticks
system.l2.pwrStateResidencyTicks::UNDEFINED  30598537500                       # Cumulative time (in ticks) in various power states
system.l2.demand_hits::.cpu.inst                   83                       # number of demand (read+write) hits
system.l2.demand_hits::.cpu.data                   68                       # number of demand (read+write) hits
system.l2.demand_hits::total                      151                       # number of demand (read+write) hits
system.l2.overall_hits::.cpu.inst                  83                       # number of overall hits
system.l2.overall_hits::.cpu.data                  68                       # number of overall hits
system.l2.overall_hits::total                     151                       # number of overall hits
system.l2.demand_misses::.cpu.inst                486                       # number of demand (read+write) misses
system.l2.demand_misses::.cpu.data             288814                       # number of demand (read+write) misses
system.l2.demand_misses::total                 289300                       # number of demand (read+write) misses
system.l2.overall_misses::.cpu.inst               486                       # number of overall misses
system.l2.overall_misses::.cpu.data            288814                       # number of overall misses
system.l2.overall_misses::total                289300                       # number of overall misses
system.l2.demand_miss_latency::.cpu.inst     37280500                       # number of demand (read+write) miss cycles
system.l2.demand_miss_latency::.cpu.data  23051273000                       # number of demand (read+write) miss cycles
system.l2.demand_miss_latency::total      23088553500                       # number of demand (read+write) miss cycles
system.l2.overall_miss_latency::.cpu.inst     37280500                       # number of overall miss cycles
system.l2.overall_miss_latency::.cpu.data  23051273000                       # number of overall miss cycles
system.l2.overall_miss_latency::total     23088553500                       # number of overall miss cycles
system.l2.demand_accesses::.cpu.inst              569                       # number of demand (read+write) accesses
system.l2.demand_accesses::.cpu.data           288882                       # number of demand (read+write) accesses
system.l2.demand_accesses::total               289451                       # number of demand (read+write) accesses
system.l2.overall_accesses::.cpu.inst             569                       # number of overall (read+write) accesses
system.l2.overall_accesses::.cpu.data          288882                       # number of overall (read+write) accesses
system.l2.overall_accesses::total              289451                       # number of overall (read+write) accesses
system.l2.demand_miss_rate::.cpu.inst        0.854130                       # miss rate for demand accesses
system.l2.demand_miss_rate::.cpu.data        0.999765                       # miss rate for demand accesses
system.l2.demand_miss_rate::total            0.999478                       # miss rate for demand accesses
system.l2.overall_miss_rate::.cpu.inst       0.854130                       # miss rate for overall accesses
system.l2.overall_miss_rate::.cpu.data       0.999765                       # miss rate for overall accesses
system.l2.overall_miss_rate::total           0.999478                       # miss rate for overall accesses
system.l2.demand_avg_miss_latency::.cpu.inst 76708.847737                       # average overall miss latency
system.l2.demand_avg_miss_latency::.cpu.data 79813.558207                       # average overall miss latency
system.l2.demand_avg_miss_latency::total 79808.342551                       # average overall miss latency
system.l2.overall_avg_miss_latency::.cpu.inst 76708.847737                       # average overall miss latency
system.l2.overall_avg_miss_latency::.cpu.data 79813.558207                       # average overall miss latency
system.l2.overall_avg_miss_latency::total 79808.342551                       # average overall miss latency
system.l2.blocked_cycles::no_mshrs                  0                       # number of cycles access was blocked
system.l2.blocked_cycles::no_targets                0                       # number of cycles access was blocked
system.l2.blocked::no_mshrs                         0                       # number of cycles access was blocked
system.l2.blocked::no_targets                       0                       # number of cycles access was blocked
system.l2.avg_blocked_cycles::no_mshrs            nan                       # average number of cycles each access was blocked
system.l2.avg_blocked_cycles::no_targets          nan                       # average number of cycles each access was blocked
system.l2.writebacks::.writebacks              255866                       # number of writebacks
system.l2.writebacks::total                    255866                       # number of writebacks
system.l2.demand_mshr_hits::.cpu.inst               1                       # number of demand (read+write) MSHR hits
system.l2.demand_mshr_hits::.cpu.data               8                       # number of demand (read+write) MSHR hits
system.l2.demand_mshr_hits::total                   9                       # number of demand (read+write) MSHR hits
system.l2.overall_mshr_hits::.cpu.inst              1                       # number of overall MSHR hits
system.l2.overall_mshr_hits::.cpu.data              8                       # number of overall MSHR hits
system.l2.overall_mshr_hits::total                  9                       # number of overall MSHR hits
system.l2.demand_mshr_misses::.cpu.inst           485                       # number of demand (read+write) MSHR misses
system.l2.demand_mshr_misses::.cpu.data        288806                       # number of demand (read+write) MSHR misses
system.l2.demand_mshr_misses::total            289291                       # number of demand (read+write) MSHR misses
system.l2.overall_mshr_misses::.cpu.inst          485                       # number of overall MSHR misses
system.l2.overall_mshr_misses::.cpu.data       288806                       # number of overall MSHR misses
system.l2.overall_mshr_misses::total           289291                       # number of overall MSHR misses
system.l2.demand_mshr_miss_latency::.cpu.inst     32376000                       # number of demand (read+write) MSHR miss cycles
system.l2.demand_mshr_miss_latency::.cpu.data  20162685500                       # number of demand (read+write) MSHR miss cycles
system.l2.demand_mshr_miss_latency::total  20195061500                       # number of demand (read+write) MSHR miss cycles
system.l2.overall_mshr_miss_latency::.cpu.inst     32376000                       # number of overall MSHR miss cycles
system.l2.overall_mshr_miss_latency::.cpu.data  20162685500                       # number of overall MSHR miss cycles
system.l2.overall_mshr_miss_latency::total  20195061500                       # number of overall MSHR miss cycles
system.l2.demand_mshr_miss_rate::.cpu.inst     0.852373                       # mshr miss rate for demand accesses
system.l2.demand_mshr_miss_rate::.cpu.data     0.999737                       # mshr miss rate for demand accesses
system.l2.demand_mshr_miss_rate::total       0.999447                       # mshr miss rate for demand accesses
system.l2.overall_mshr_miss_rate::.cpu.inst     0.852373                       # mshr miss rate for overall accesses
system.l2.overall_mshr_miss_rate::.cpu.data     0.999737                       # mshr miss rate for overall accesses
system.l2.overall_mshr_miss_rate::total      0.999447                       # mshr miss rate for overall accesses
system.l2.demand_avg_mshr_miss_latency::.cpu.inst 66754.639175                       # average overall mshr miss latency
system.l2.demand_avg_mshr_miss_latency::.cpu.data 69813.942577                       # average overall mshr miss latency
system.l2.demand_avg_mshr_miss_latency::total 69808.813617                       # average overall mshr miss latency
system.l2.overall_avg_mshr_miss_latency::.cpu.inst 66754.639175                       # average overall mshr miss latency
system.l2.overall_avg_mshr_miss_latency::.cpu.data 69813.942577                       # average overall mshr miss latency
system.l2.overall_avg_mshr_miss_latency::total 69808.813617                       # average overall mshr miss latency
system.l2.replacements                         256523                       # number of replacements
system.l2.WritebackDirty_hits::.writebacks       287635                       # number of WritebackDirty hits
system.l2.WritebackDirty_hits::total           287635                       # number of WritebackDirty hits
system.l2.WritebackDirty_accesses::.writebacks       287635                       # number of WritebackDirty accesses(hits+misses)
system.l2.WritebackDirty_accesses::total       287635                       # number of WritebackDirty accesses(hits+misses)
system.l2.WritebackClean_hits::.writebacks          229                       # number of WritebackClean hits
system.l2.WritebackClean_hits::total              229                       # number of WritebackClean hits
system.l2.WritebackClean_accesses::.writebacks          229                       # number of WritebackClean accesses(hits+misses)
system.l2.WritebackClean_accesses::total          229                       # number of WritebackClean accesses(hits+misses)
system.l2.ReadExReq_hits::.cpu.data                13                       # number of ReadExReq hits
system.l2.ReadExReq_hits::total                    13                       # number of ReadExReq hits
system.l2.ReadExReq_misses::.cpu.data          288620                       # number of ReadExReq misses
system.l2.ReadExReq_misses::total              288620                       # number of ReadExReq misses
system.l2.ReadExReq_miss_latency::.cpu.data  23036360500                       # number of ReadExReq miss cycles
system.l2.ReadExReq_miss_latency::total   23036360500                       # number of ReadExReq miss cycles
system.l2.ReadExReq_accesses::.cpu.data        288633                       # number of ReadExReq accesses(hits+misses)
system.l2.ReadExReq_accesses::total            288633                       # number of ReadExReq accesses(hits+misses)
system.l2.ReadExReq_miss_rate::.cpu.data     0.999955                       # miss rate for ReadExReq accesses
system.l2.ReadExReq_miss_rate::total         0.999955                       # miss rate for ReadExReq accesses
system.l2.ReadExReq_avg_miss_latency::.cpu.data 79815.537731                       # average ReadExReq miss latency
system.l2.ReadExReq_avg_miss_latency::total 79815.537731                       # average ReadExReq miss latency
system.l2.ReadExReq_mshr_misses::.cpu.data       288620                       # number of ReadExReq MSHR misses
system.l2.ReadExReq_mshr_misses::total         288620                       # number of ReadExReq MSHR misses
system.l2.ReadExReq_mshr_miss_latency::.cpu.data  20150160500                       # number of ReadExReq MSHR miss cycles
system.l2.ReadExReq_mshr_miss_latency::total  20150160500                       # number of ReadExReq MSHR miss cycles
system.l2.ReadExReq_mshr_miss_rate::.cpu.data     0.999955                       # mshr miss rate for ReadExReq accesses
system.l2.ReadExReq_mshr_miss_rate::total     0.999955                       # mshr miss rate for ReadExReq accesses
system.l2.ReadExReq_avg_mshr_miss_latency::.cpu.data 69815.537731                       # average ReadExReq mshr miss latency
system.l2.ReadExReq_avg_mshr_miss_latency::total 69815.537731                       # average ReadExReq mshr miss latency
system.l2.ReadCleanReq_hits::.cpu.inst             83                       # number of ReadCleanReq hits
system.l2.ReadCleanReq_hits::total                 83                       # number of ReadCleanReq hits
system.l2.ReadCleanReq_misses::.cpu.inst          486                       # number of ReadCleanReq misses
system.l2.ReadCleanReq_misses::total              486                       # number of ReadCleanReq misses
system.l2.ReadCleanReq_miss_latency::.cpu.inst     37280500                       # number of ReadCleanReq miss cycles
system.l2.ReadCleanReq_miss_latency::total     37280500                       # number of ReadCleanReq miss cycles
system.l2.ReadCleanReq_accesses::.cpu.inst          569                       # number of ReadCleanReq accesses(hits+misses)
system.l2.ReadCleanReq_accesses::total            569                       # number of ReadCleanReq accesses(hits+misses)
system.l2.ReadCleanReq_miss_rate::.cpu.inst     0.854130                       # miss rate for ReadCleanReq accesses
system.l2.ReadCleanReq_miss_rate::total      0.854130                       # miss rate for ReadCleanReq accesses
system.l2.ReadCleanReq_avg_miss_latency::.cpu.inst 76708.847737                       # average ReadCleanReq miss latency
system.l2.ReadCleanReq_avg_miss_latency::total 76708.847737                       # average ReadCleanReq miss latency
system.l2.ReadCleanReq_mshr_hits::.cpu.inst            1                       # number of ReadCleanReq MSHR hits
system.l2.ReadCleanReq_mshr_hits::total             1                       # number of ReadCleanReq MSHR hits
system.l2.ReadCleanReq_mshr_misses::.cpu.inst          485                       # number of ReadCleanReq MSHR misses
system.l2.ReadCleanReq_mshr_misses::total          485                       # number of ReadCleanReq MSHR misses
system.l2.ReadCleanReq_mshr_miss_latency::.cpu.inst     32376000                       # number of ReadCleanReq MSHR miss cycles
system.l2.ReadCleanReq_mshr_miss_latency::total     32376000                       # number of ReadCleanReq MSHR miss cycles
system.l2.ReadCleanReq_mshr_miss_rate::.cpu.inst     0.852373                       # mshr miss rate for ReadCleanReq accesses
system.l2.ReadCleanReq_mshr_miss_rate::total     0.852373                       # mshr miss rate for ReadCleanReq accesses
system.l2.ReadCleanReq_avg_mshr_miss_latency::.cpu.inst 66754.639175                       # average ReadCleanReq mshr miss latency
system.l2.ReadCleanReq_avg_mshr_miss_latency::total 66754.639175                       # average ReadCleanReq mshr miss latency
system.l2.ReadSharedReq_hits::.cpu.data            55                       # number of ReadSharedReq hits
system.l2.ReadSharedReq_hits::total                55                       # number of ReadSharedReq hits
system.l2.ReadSharedReq_misses::.cpu.data          194                       # number of ReadSharedReq misses
system.l2.ReadSharedReq_misses::total             194                       # number of ReadSharedReq misses
system.l2.ReadSharedReq_miss_latency::.cpu.data     14912500                       # number of ReadSharedReq miss cycles
system.l2.ReadSharedReq_miss_latency::total     14912500                       # number of ReadSharedReq miss cycles
system.l2.ReadSharedReq_accesses::.cpu.data          249                       # number of ReadSharedReq accesses(hits+misses)
system.l2.ReadSharedReq_accesses::total           249                       # number of ReadSharedReq accesses(hits+misses)
system.l2.ReadSharedReq_miss_rate::.cpu.data     0.779116                       # miss rate for ReadSharedReq accesses
system.l2.ReadSharedReq_miss_rate::total     0.779116                       # miss rate for ReadSharedReq accesses
system.l2.ReadSharedReq_avg_miss_latency::.cpu.data 76868.556701                       # average ReadSharedReq miss latency
system.l2.ReadSharedReq_avg_miss_latency::total 76868.556701                       # average ReadSharedReq miss latency
system.l2.ReadSharedReq_mshr_hits::.cpu.data            8                       # number of ReadSharedReq MSHR hits
system.l2.ReadSharedReq_mshr_hits::total            8                       # number of ReadSharedReq MSHR hits
system.l2.ReadSharedReq_mshr_misses::.cpu.data          186                       # number of ReadSharedReq MSHR misses
system.l2.ReadSharedReq_mshr_misses::total          186                       # number of ReadSharedReq MSHR misses
system.l2.ReadSharedReq_mshr_miss_latency::.cpu.data     12525000                       # number of ReadSharedReq MSHR miss cycles
system.l2.ReadSharedReq_mshr_miss_latency::total     12525000                       # number of ReadSharedReq MSHR miss cycles
system.l2.ReadSharedReq_mshr_miss_rate::.cpu.data     0.746988                       # mshr miss rate for ReadSharedReq accesses
system.l2.ReadSharedReq_mshr_miss_rate::total     0.746988                       # mshr miss rate for ReadSharedReq accesses
system.l2.ReadSharedReq_avg_mshr_miss_latency::.cpu.data 67338.709677                       # average ReadSharedReq mshr miss latency
system.l2.ReadSharedReq_avg_mshr_miss_latency::total 67338.709677                       # average ReadSharedReq mshr miss latency
system.l2.tags.pwrStateResidencyTicks::UNDEFINED  30598537500                       # Cumulative time (in ticks) in various power states
system.l2.tags.tagsinuse                 28431.000910                       # Cycle average of tags in use
system.l2.tags.total_refs                      577479                       # Total number of references to valid blocks.
system.l2.tags.sampled_refs                    289291                       # Sample count of references to valid blocks.
system.l2.tags.avg_refs                      1.996187                       # Average number of references to valid blocks.
system.l2.tags.warmup_cycle                     77000                       # Cycle when the warmup percentage was hit.
system.l2.tags.occ_blocks::.cpu.inst        82.072264                       # Average occupied blocks per requestor
system.l2.tags.occ_blocks::.cpu.data     28348.928647                       # Average occupied blocks per requestor
system.l2.tags.occ_percent::.cpu.inst        0.002505                       # Average percentage of cache occupancy
system.l2.tags.occ_percent::.cpu.data        0.865141                       # Average percentage of cache occupancy
system.l2.tags.occ_percent::total            0.867645                       # Average percentage of cache occupancy
system.l2.tags.occ_task_id_blocks::1024         32768                       # Occupied blocks per task id
system.l2.tags.age_task_id_blocks_1024::0          105                       # Occupied blocks per task id
system.l2.tags.age_task_id_blocks_1024::1          926                       # Occupied blocks per task id
system.l2.tags.age_task_id_blocks_1024::2         9262                       # Occupied blocks per task id
system.l2.tags.age_task_id_blocks_1024::3        22475                       # Occupied blocks per task id
system.l2.tags.occ_task_id_percent::1024            1                       # Percentage of cache occupancy per task id
system.l2.tags.tag_accesses                   4909195                       # Number of tag accesses
system.l2.tags.data_accesses                  4909195                       # Number of data accesses
system.cpu_voltage_domain.voltage                   1                       # Voltage in Volts
system.mem_ctrls.pwrStateResidencyTicks::UNDEFINED  30598537500                       # Cumulative time (in ticks) in various power states
system.mem_ctrls.bytes_read::.cpu.inst          31040                       # Number of bytes read from this memory
system.mem_ctrls.bytes_read::.cpu.data       18483584                       # Number of bytes read from this memory
system.mem_ctrls.bytes_read::total           18514624                       # Number of bytes read from this memory
system.mem_ctrls.bytes_inst_read::.cpu.inst        31040                       # Number of instructions bytes read from this memory
system.mem_ctrls.bytes_inst_read::total         31040                       # Number of instructions bytes read from this memory
system.mem_ctrls.bytes_written::.writebacks     16375424                       # Number of bytes written to this memory
system.mem_ctrls.bytes_written::total        16375424                       # Number of bytes written to this memory
system.mem_ctrls.num_reads::.cpu.inst             485                       # Number of read requests responded to by this memory
system.mem_ctrls.num_reads::.cpu.data          288806                       # Number of read requests responded to by this memory
system.mem_ctrls.num_reads::total              289291                       # Number of read requests responded to by this memory
system.mem_ctrls.num_writes::.writebacks       255866                       # Number of write requests responded to by this memory
system.mem_ctrls.num_writes::total             255866                       # Number of write requests responded to by this memory
system.mem_ctrls.bw_read::.cpu.inst           1014428                       # Total read bandwidth from this memory (bytes/s)
system.mem_ctrls.bw_read::.cpu.data         604067564                       # Total read bandwidth from this memory (bytes/s)
system.mem_ctrls.bw_read::total             605081991                       # Total read bandwidth from this memory (bytes/s)
system.mem_ctrls.bw_inst_read::.cpu.inst      1014428                       # Instruction read bandwidth from this memory (bytes/s)
system.mem_ctrls.bw_inst_read::total          1014428                       # Instruction read bandwidth from this memory (bytes/s)
system.mem_ctrls.bw_write::.writebacks      535170153                       # Write bandwidth from this memory (bytes/s)
system.mem_ctrls.bw_write::total            535170153                       # Write bandwidth from this memory (bytes/s)
system.mem_ctrls.bw_total::.writebacks      535170153                       # Total bandwidth to/from this memory (bytes/s)
system.mem_ctrls.bw_total::.cpu.inst          1014428                       # Total bandwidth to/from this memory (bytes/s)
system.mem_ctrls.bw_total::.cpu.data        604067564                       # Total bandwidth to/from this memory (bytes/s)
system.mem_ctrls.bw_total::total           1140252144                       # Total bandwidth to/from this memory (bytes/s)
system.mem_ctrls.avgPriority_.writebacks::samples    255866.00                       # Average QoS priority value for accepted requests
system.mem_ctrls.avgPriority_.cpu.inst::samples       485.00                       # Average QoS priority value for accepted requests
system.mem_ctrls.avgPriority_.cpu.data::samples    288806.00                       # Average QoS priority value for accepted requests
system.mem_ctrls.priorityMinLatency      0.000000018750                       # per QoS priority minimum request to response latency (s)
system.mem_ctrls.priorityMaxLatency      0.000766008500                       # per QoS priority maximum request to response latency (s)
system.mem_ctrls.numReadWriteTurnArounds        15985                       # Number of turnarounds from READ to WRITE
system.mem_ctrls.numWriteReadTurnArounds        15985                       # Number of turnarounds from WRITE to READ
system.mem_ctrls.numStayReadState              825157                       # Number of times bus staying in READ state
system.mem_ctrls.numStayWriteState             240923                       # Number of times bus staying in WRITE state
system.mem_ctrls.readReqs                      289291                       # Number of read requests accepted
system.mem_ctrls.writeReqs                     255866                       # Number of write requests accepted
system.mem_ctrls.readBursts                    289291                       # Number of DRAM read bursts, including those serviced by the write queue
system.mem_ctrls.writeBursts                   255866                       # Number of DRAM write bursts, including those merged in the write queue
system.mem_ctrls.servicedByWrQ                      0                       # Number of DRAM read bursts serviced by the write queue
system.mem_ctrls.mergedWrBursts                     0                       # Number of DRAM write bursts merged with an existing one
system.mem_ctrls.neitherReadNorWriteReqs            0                       # Number of requests that are neither read nor write
system.mem_ctrls.perBankRdBursts::0             17946                       # Per bank write bursts
system.mem_ctrls.perBankRdBursts::1             17967                       # Per bank write bursts
system.mem_ctrls.perBankRdBursts::2             17970                       # Per bank write bursts
system.mem_ctrls.perBankRdBursts::3             18126                       # Per bank write bursts
system.mem_ctrls.perBankRdBursts::4             18051                       # Per bank write bursts
system.mem_ctrls.perBankRdBursts::5             18003                       # Per bank write bursts
system.mem_ctrls.perBankRdBursts::6             18098                       # Per bank write bursts
system.mem_ctrls.perBankRdBursts::7             18026                       # Per bank write bursts
system.mem_ctrls.perBankRdBursts::8             18137                       # Per bank write bursts
system.mem_ctrls.perBankRdBursts::9             18190                       # Per bank write bursts
system.mem_ctrls.perBankRdBursts::10            18135                       # Per bank write bursts
system.mem_ctrls.perBankRdBursts::11            18126                       # Per bank write bursts
system.mem_ctrls.perBankRdBursts::12            18154                       # Per bank write bursts
system.mem_ctrls.perBankRdBursts::13            18145                       # Per bank write bursts
system.mem_ctrls.perBankRdBursts::14            18177                       # Per bank write bursts
system.mem_ctrls.perBankRdBursts::15            18040                       # Per bank write bursts
system.mem_ctrls.perBankWrBursts::0             15872                       # Per bank write bursts
system.mem_ctrls.perBankWrBursts::1             15872                       # Per bank write bursts
system.mem_ctrls.perBankWrBursts::2             15897                       # Per bank write bursts
system.mem_ctrls.perBankWrBursts::3             16040                       # Per bank write bursts
system.mem_ctrls.perBankWrBursts::4             15979                       # Per bank write bursts
system.mem_ctrls.perBankWrBursts::5             15932                       # Per bank write bursts
system.mem_ctrls.perBankWrBursts::6             16025                       # Per bank write bursts
system.mem_ctrls.perBankWrBursts::7             15937                       # Per bank write bursts
system.mem_ctrls.perBankWrBursts::8             15970                       # Per bank write bursts
system.mem_ctrls.perBankWrBursts::9             16056                       # Per bank write bursts
system.mem_ctrls.perBankWrBursts::10            16061                       # Per bank write bursts
system.mem_ctrls.perBankWrBursts::11            16053                       # Per bank write bursts
system.mem_ctrls.perBankWrBursts::12            16063                       # Per bank write bursts
system.mem_ctrls.perBankWrBursts::13            16062                       # Per bank write bursts
system.mem_ctrls.perBankWrBursts::14            16062                       # Per bank write bursts
system.mem_ctrls.perBankWrBursts::15            15954                       # Per bank write bursts
system.mem_ctrls.avgRdQLen                       1.09                       # Average read queue length when enqueuing
system.mem_ctrls.avgWrQLen                      21.65                       # Average write queue length when enqueuing
system.mem_ctrls.totQLat                   2978683250                       # Total ticks spent queuing
system.mem_ctrls.totBusLat                 1446455000                       # Total ticks spent in databus transfers
system.mem_ctrls.totMemAccLat              8402889500                       # Total ticks spent from burst creation until serviced by the DRAM
system.mem_ctrls.avgQLat                     10296.49                       # Average queueing delay per DRAM burst
system.mem_ctrls.avgBusLat                    5000.00                       # Average bus latency per DRAM burst
system.mem_ctrls.avgMemAccLat                29046.49                       # Average memory access latency per DRAM burst
system.mem_ctrls.numRdRetry                         0                       # Number of times read queue was full causing retry
system.mem_ctrls.numWrRetry                         0                       # Number of times write queue was full causing retry
system.mem_ctrls.readRowHits                   264699                       # Number of row buffer hits during reads
system.mem_ctrls.writeRowHits                  237382                       # Number of row buffer hits during writes
system.mem_ctrls.readRowHitRate                 91.50                       # Row buffer hit rate for reads
system.mem_ctrls.writeRowHitRate                92.78                       # Row buffer hit rate for writes
system.mem_ctrls.readPktSize::0                     0                       # Read request sizes (log2)
system.mem_ctrls.readPktSize::1                     0                       # Read request sizes (log2)
system.mem_ctrls.readPktSize::2                     0                       # Read request sizes (log2)
system.mem_ctrls.readPktSize::3                     0                       # Read request sizes (log2)
system.mem_ctrls.readPktSize::4                     0                       # Read request sizes (log2)
system.mem_ctrls.readPktSize::5                     0                       # Read request sizes (log2)
system.mem_ctrls.readPktSize::6                289291                       # Read request sizes (log2)
system.mem_ctrls.writePktSize::0                    0                       # Write request sizes (log2)
system.mem_ctrls.writePktSize::1                    0                       # Write request sizes (log2)
system.mem_ctrls.writePktSize::2                    0                       # Write request sizes (log2)
system.mem_ctrls.writePktSize::3                    0                       # Write request sizes (log2)
system.mem_ctrls.writePktSize::4                    0                       # Write request sizes (log2)
system.mem_ctrls.writePktSize::5                    0                       # Write request sizes (log2)
system.mem_ctrls.writePktSize::6               255866                       # Write request sizes (log2)
system.mem_ctrls.rdQLenPdf::0                  288407                       # What read queue length does an incoming req see
system.mem_ctrls.rdQLenPdf::1                     870                       # What read queue length does an incoming req see
system.mem_ctrls.rdQLenPdf::2                      13                       # What read queue length does an incoming req see
system.mem_ctrls.rdQLenPdf::3                       1                       # What read queue length does an incoming req see
system.mem_ctrls.rdQLenPdf::4                       0                       # What read queue length does an incoming req see
system.mem_ctrls.rdQLenPdf::5                       0                       # What read queue length does an incoming req see
system.mem_ctrls.rdQLenPdf::6                       0                       # What read queue length does an incoming req see
system.mem_ctrls.rdQLenPdf::7                       0                       # What read queue length does an incoming req see
system.mem_ctrls.rdQLenPdf::8                       0                       # What read queue length does an incoming req see
system.mem_ctrls.rdQLenPdf::9                       0                       # What read queue length does an incoming req see
system.mem_ctrls.rdQLenPdf::10                      0                       # What read queue length does an incoming req see
system.mem_ctrls.rdQLenPdf::11                      0                       # What read queue length does an incoming req see
system.mem_ctrls.rdQLenPdf::12                      0                       # What read queue length does an incoming req see
system.mem_ctrls.rdQLenPdf::13                      0                       # What read queue length does an incoming req see
system.mem_ctrls.rdQLenPdf::14                      0                       # What read queue length does an incoming req see
system.mem_ctrls.rdQLenPdf::15                      0                       # What read queue length does an incoming req see
system.mem_ctrls.rdQLenPdf::16                      0                       # What read queue length does an incoming req see
system.mem_ctrls.rdQLenPdf::17                      0                       # What read queue length does an incoming req see
system.mem_ctrls.rdQLenPdf::18                      0                       # What read queue length does an incoming req see
system.mem_ctrls.rdQLenPdf::19                      0                       # What read queue length does an incoming req see
system.mem_ctrls.rdQLenPdf::20                      0                       # What read queue length does an incoming req see
system.mem_ctrls.rdQLenPdf::21                      0                       # What read queue length does an incoming req see
system.mem_ctrls.rdQLenPdf::22                      0                       # What read queue length does an incoming req see
system.mem_ctrls.rdQLenPdf::23                      0                       # What read queue length does an incoming req see
system.mem_ctrls.rdQLenPdf::24                      0                       # What read queue length does an incoming req see
system.mem_ctrls.rdQLenPdf::25                      0                       # What read queue length does an incoming req see
system.mem_ctrls.rdQLenPdf::26                      0                       # What read queue length does an incoming req see
system.mem_ctrls.rdQLenPdf::27                      0                       # What read queue length does an incoming req see
system.mem_ctrls.rdQLenPdf::28                      0                       # What read queue length does an incoming req see
system.mem_ctrls.rdQLenPdf::29                      0                       # What read queue length does an incoming req see
system.mem_ctrls.rdQLenPdf::30                      0                       # What read queue length does an incoming req see
system.mem_ctrls.rdQLenPdf::31                      0                       # What read queue length does an incoming req see
system.mem_ctrls.wrQLenPdf::0                       1                       # What write queue length does an incoming req see
system.mem_ctrls.wrQLenPdf::1                       1                       # What write queue length does an incoming req see
system.mem_ctrls.wrQLenPdf::2                       1                       # What write queue length does an incoming req see
system.mem_ctrls.wrQLenPdf::3                       1                       # What write queue length does an incoming req see
system.mem_ctrls.wrQLenPdf::4                       1                       # What write queue length does an incoming req see
system.mem_ctrls.wrQLenPdf::5                       1                       # What write queue length does an incoming req see
system.mem_ctrls.wrQLenPdf::6                       1                       # What write queue length does an incoming req see
system.mem_ctrls.wrQLenPdf::7                       1                       # What write queue length does an incoming req see
system.mem_ctrls.wrQLenPdf::8                       1                       # What write queue length does an incoming req see
system.mem_ctrls.wrQLenPdf::9                       1                       # What write queue length does an incoming req see
system.mem_ctrls.wrQLenPdf::10                      1                       # What write queue length does an incoming req see
system.mem_ctrls.wrQLenPdf::11                      1                       # What write queue length does an incoming req see
system.mem_ctrls.wrQLenPdf::12                      1                       # What write queue length does an incoming req see
system.mem_ctrls.wrQLenPdf::13                      1                       # What write queue length does an incoming req see
system.mem_ctrls.wrQLenPdf::14                      1                       # What write queue length does an incoming req see
system.mem_ctrls.wrQLenPdf::15                     26                       # What write queue length does an incoming req see
system.mem_ctrls.wrQLenPdf::16                     26                       # What write queue length does an incoming req see
system.mem_ctrls.wrQLenPdf::17                  15792                       # What write queue length does an incoming req see
system.mem_ctrls.wrQLenPdf::18                  15986                       # What write queue length does an incoming req see
system.mem_ctrls.wrQLenPdf::19                  15986                       # What write queue length does an incoming req see
system.mem_ctrls.wrQLenPdf::20                  15986                       # What write queue length does an incoming req see
system.mem_ctrls.wrQLenPdf::21                  15986                       # What write queue length does an incoming req see
system.mem_ctrls.wrQLenPdf::22                  15986                       # What write queue length does an incoming req see
system.mem_ctrls.wrQLenPdf::23                  15987                       # What write queue length does an incoming req see
system.mem_ctrls.wrQLenPdf::24                  15986                       # What write queue length does an incoming req see
system.mem_ctrls.wrQLenPdf::25                  16204                       # What write queue length does an incoming req see
system.mem_ctrls.wrQLenPdf::26                  15986                       # What write queue length does an incoming req see
system.mem_ctrls.wrQLenPdf::27                  15986                       # What write queue length does an incoming req see
system.mem_ctrls.wrQLenPdf::28                  15986                       # What write queue length does an incoming req see
system.mem_ctrls.wrQLenPdf::29                  15986                       # What write queue length does an incoming req see
system.mem_ctrls.wrQLenPdf::30                  15986                       # What write queue length does an incoming req see
system.mem_ctrls.wrQLenPdf::31                  15985                       # What write queue length does an incoming req see
system.mem_ctrls.wrQLenPdf::32                  15985                       # What write queue length does an incoming req see
system.mem_ctrls.wrQLenPdf::33                      0                       # What write queue length does an incoming req see
system.mem_ctrls.wrQLenPdf::34                      0                       # What write queue length does an incoming req see
system.mem_ctrls.wrQLenPdf::35                      0                       # What write queue length does an incoming req see
system.mem_ctrls.wrQLenPdf::36                      0                       # What write queue length does an incoming req see
system.mem_ctrls.wrQLenPdf::37                      0                       # What write queue length does an incoming req see
system.mem_ctrls.wrQLenPdf::38                      0                       # What write queue length does an incoming req see
system.mem_ctrls.wrQLenPdf::39                      0                       # What write queue length does an incoming req see
system.mem_ctrls.wrQLenPdf::40                      0                       # What write queue length does an incoming req see
system.mem_ctrls.wrQLenPdf::41                      0                       # What write queue length does an incoming req see
system.mem_ctrls.wrQLenPdf::42                      0                       # What write queue length does an incoming req see
system.mem_ctrls.wrQLenPdf::43                      0                       # What write queue length does an incoming req see
system.mem_ctrls.wrQLenPdf::44                      0                       # What write queue length does an incoming req see
system.mem_ctrls.wrQLenPdf::45                      0                       # What write queue length does an incoming req see
system.mem_ctrls.wrQLenPdf::46                      0                       # What write queue length does an incoming req see
system.mem_ctrls.wrQLenPdf::47                      0                       # What write queue length does an incoming req see
system.mem_ctrls.wrQLenPdf::48                      0                       # What write queue length does an incoming req see
system.mem_ctrls.wrQLenPdf::49                      0                       # What write queue length does an incoming req see
system.mem_ctrls.wrQLenPdf::50                      0                       # What write queue length does an incoming req see
system.mem_ctrls.wrQLenPdf::51                      0                       # What write queue length does an incoming req see
system.mem_ctrls.wrQLenPdf::52                      0                       # What write queue length does an incoming req see
system.mem_ctrls.wrQLenPdf::53                      0                       # What write queue length does an incoming req see
system.mem_ctrls.wrQLenPdf::54                      0                       # What write queue length does an incoming req see
system.mem_ctrls.wrQLenPdf::55                      0                       # What write queue length does an incoming req see
system.mem_ctrls.wrQLenPdf::56                      0                       # What write queue length does an incoming req see
system.mem_ctrls.wrQLenPdf::57                      0                       # What write queue length does an incoming req see
system.mem_ctrls.wrQLenPdf::58                      0                       # What write queue length does an incoming req see
system.mem_ctrls.wrQLenPdf::59                      0                       # What write queue length does an incoming req see
system.mem_ctrls.wrQLenPdf::60                      0                       # What write queue length does an incoming req see
system.mem_ctrls.wrQLenPdf::61                      0                       # What write queue length does an incoming req see
system.mem_ctrls.wrQLenPdf::62                      0                       # What write queue length does an incoming req see
system.mem_ctrls.wrQLenPdf::63                      0                       # What write queue length does an incoming req see
system.mem_ctrls.bytesPerActivate::samples        43044                       # Bytes accessed per row activation
system.mem_ctrls.bytesPerActivate::mean    810.500139                       # Bytes accessed per row activation
system.mem_ctrls.bytesPerActivate::gmean   675.502541                       # Bytes accessed per row activation
system.mem_ctrls.bytesPerActivate::stdev   325.839743                       # Bytes accessed per row activation
system.mem_ctrls.bytesPerActivate::0-127         2512      5.84%      5.84% # Bytes accessed per row activation
system.mem_ctrls.bytesPerActivate::128-255         1659      3.85%      9.69% # Bytes accessed per row activation
system.mem_ctrls.bytesPerActivate::256-383         2625      6.10%     15.79% # Bytes accessed per row activation
system.mem_ctrls.bytesPerActivate::384-511         2082      4.84%     20.63% # Bytes accessed per row activation
system.mem_ctrls.bytesPerActivate::512-639         1578      3.67%     24.29% # Bytes accessed per row activation
system.mem_ctrls.bytesPerActivate::640-767         2337      5.43%     29.72% # Bytes accessed per row activation
system.mem_ctrls.bytesPerActivate::768-895         1905      4.43%     34.15% # Bytes accessed per row activation
system.mem_ctrls.bytesPerActivate::896-1023         1271      2.95%     37.10% # Bytes accessed per row activation
system.mem_ctrls.bytesPerActivate::1024-1151        27075     62.90%    100.00% # Bytes accessed per row activation
system.mem_ctrls.bytesPerActivate::total        43044                       # Bytes accessed per row activation
system.mem_ctrls.rdPerTurnAround::samples        15985                       # Reads before turning the bus around for writes
system.mem_ctrls.rdPerTurnAround::mean      18.096778                       # Reads before turning the bus around for writes
system.mem_ctrls.rdPerTurnAround::gmean     16.075357                       # Reads before turning the bus around for writes
system.mem_ctrls.rdPerTurnAround::stdev    225.749780                       # Reads before turning the bus around for writes
system.mem_ctrls.rdPerTurnAround::0-1023        15983     99.99%     99.99% # Reads before turning the bus around for writes
system.mem_ctrls.rdPerTurnAround::1024-2047            1      0.01%     99.99% # Reads before turning the bus around for writes
system.mem_ctrls.rdPerTurnAround::27648-28671            1      0.01%    100.00% # Reads before turning the bus around for writes
system.mem_ctrls.rdPerTurnAround::total         15985                       # Reads before turning the bus around for writes
system.mem_ctrls.wrPerTurnAround::samples        15985                       # Writes before turning the bus around for reads
system.mem_ctrls.wrPerTurnAround::mean      16.004692                       # Writes before turning the bus around for reads
system.mem_ctrls.wrPerTurnAround::gmean     16.004301                       # Writes before turning the bus around for reads
system.mem_ctrls.wrPerTurnAround::stdev      0.118552                       # Writes before turning the bus around for reads
[...]
system.cpu.icache.tags.warmup_cycle             87500                       # Cycle when the warmup percentage was hit.
system.cpu.icache.tags.occ_blocks::.cpu.inst   323.419831                       # Average occupied blocks per requestor
system.cpu.icache.tags.occ_percent::.cpu.inst     0.631679                       # Average percentage of cache occupancy
system.cpu.icache.tags.occ_percent::total     0.631679                       # Average percentage of cache occupancy
system.cpu.icache.tags.occ_task_id_blocks::1024          325                       # Occupied blocks per task id
system.cpu.icache.tags.age_task_id_blocks_1024::4          325                       # Occupied blocks per task id
system.cpu.icache.tags.occ_task_id_percent::1024     0.634766                       # Percentage of cache occupancy per task id
system.cpu.icache.tags.tag_accesses           2137631                       # Number of tag accesses
system.cpu.icache.tags.data_accesses          2137631                       # Number of data accesses
system.cpu.dtb.walker.pwrStateResidencyTicks::UNDEFINED  30598537500                       # Cumulative time (in ticks) in various power states
system.cpu.dtb.stage2_mmu.stage2_tlb.walker.pwrStateResidencyTicks::UNDEFINED  30598537500                       # Cumulative time (in ticks) in various power states
system.cpu.dcache.pwrStateResidencyTicks::UNDEFINED  30598537500                       # Cumulative time (in ticks) in various power states
system.cpu.dcache.demand_hits::.cpu.data      6212772                       # number of demand (read+write) hits
system.cpu.dcache.demand_hits::total          6212772                       # number of demand (read+write) hits
system.cpu.dcache.overall_hits::.cpu.data      6212807                       # number of overall hits
system.cpu.dcache.overall_hits::total         6212807                       # number of overall hits
system.cpu.dcache.demand_misses::.cpu.data       575083                       # number of demand (read+write) misses
system.cpu.dcache.demand_misses::total         575083                       # number of demand (read+write) misses
system.cpu.dcache.overall_misses::.cpu.data       575112                       # number of overall misses
system.cpu.dcache.overall_misses::total        575112                       # number of overall misses
system.cpu.dcache.demand_miss_latency::.cpu.data  47461738000                       # number of demand (read+write) miss cycles
system.cpu.dcache.demand_miss_latency::total  47461738000                       # number of demand (read+write) miss cycles
system.cpu.dcache.overall_miss_latency::.cpu.data  47461738000                       # number of overall miss cycles
system.cpu.dcache.overall_miss_latency::total  47461738000                       # number of overall miss cycles
system.cpu.dcache.demand_accesses::.cpu.data      6787855                       # number of demand (read+write) accesses
system.cpu.dcache.demand_accesses::total      6787855                       # number of demand (read+write) accesses
system.cpu.dcache.overall_accesses::.cpu.data      6787919                       # number of overall (read+write) accesses
system.cpu.dcache.overall_accesses::total      6787919                       # number of overall (read+write) accesses
system.cpu.dcache.demand_miss_rate::.cpu.data     0.084722                       # miss rate for demand accesses
system.cpu.dcache.demand_miss_rate::total     0.084722                       # miss rate for demand accesses
system.cpu.dcache.overall_miss_rate::.cpu.data     0.084726                       # miss rate for overall accesses
system.cpu.dcache.overall_miss_rate::total     0.084726                       # miss rate for overall accesses
system.cpu.dcache.demand_avg_miss_latency::.cpu.data 82530.239983                       # average overall miss latency
system.cpu.dcache.demand_avg_miss_latency::total 82530.239983                       # average overall miss latency
system.cpu.dcache.overall_avg_miss_latency::.cpu.data 82526.078399                       # average overall miss latency
system.cpu.dcache.overall_avg_miss_latency::total 82526.078399                       # average overall miss latency
system.cpu.dcache.blocked_cycles::no_mshrs          139                       # number of cycles access was blocked
system.cpu.dcache.blocked_cycles::no_targets            0                       # number of cycles access was blocked
system.cpu.dcache.blocked::no_mshrs                 1                       # number of cycles access was blocked
system.cpu.dcache.blocked::no_targets               0                       # number of cycles access was blocked
system.cpu.dcache.avg_blocked_cycles::no_mshrs          139                       # average number of cycles each access was blocked
system.cpu.dcache.avg_blocked_cycles::no_targets          nan                       # average number of cycles each access was blocked
system.cpu.dcache.writebacks::.writebacks       287635                       # number of writebacks
system.cpu.dcache.writebacks::total            287635                       # number of writebacks
system.cpu.dcache.demand_mshr_hits::.cpu.data       286220                       # number of demand (read+write) MSHR hits
system.cpu.dcache.demand_mshr_hits::total       286220                       # number of demand (read+write) MSHR hits
system.cpu.dcache.overall_mshr_hits::.cpu.data       286220                       # number of overall MSHR hits
system.cpu.dcache.overall_mshr_hits::total       286220                       # number of overall MSHR hits
system.cpu.dcache.demand_mshr_misses::.cpu.data       288863                       # number of demand (read+write) MSHR misses
system.cpu.dcache.demand_mshr_misses::total       288863                       # number of demand (read+write) MSHR misses
system.cpu.dcache.overall_mshr_misses::.cpu.data       288881                       # number of overall MSHR misses
system.cpu.dcache.overall_mshr_misses::total       288881                       # number of overall MSHR misses
system.cpu.dcache.demand_mshr_miss_latency::.cpu.data  23483939000                       # number of demand (read+write) MSHR miss cycles
system.cpu.dcache.demand_mshr_miss_latency::total  23483939000                       # number of demand (read+write) MSHR miss cycles
system.cpu.dcache.overall_mshr_miss_latency::.cpu.data  23485251000                       # number of overall MSHR miss cycles
system.cpu.dcache.overall_mshr_miss_latency::total  23485251000                       # number of overall MSHR miss cycles
system.cpu.dcache.demand_mshr_miss_rate::.cpu.data     0.042556                       # mshr miss rate for demand accesses
system.cpu.dcache.demand_mshr_miss_rate::total     0.042556                       # mshr miss rate for demand accesses
system.cpu.dcache.overall_mshr_miss_rate::.cpu.data     0.042558                       # mshr miss rate for overall accesses
system.cpu.dcache.overall_mshr_miss_rate::total     0.042558                       # mshr miss rate for overall accesses
system.cpu.dcache.demand_avg_mshr_miss_latency::.cpu.data 81297.843614                       # average overall mshr miss latency
system.cpu.dcache.demand_avg_mshr_miss_latency::total 81297.843614                       # average overall mshr miss latency
system.cpu.dcache.overall_avg_mshr_miss_latency::.cpu.data 81297.319658                       # average overall mshr miss latency
system.cpu.dcache.overall_avg_mshr_miss_latency::total 81297.319658                       # average overall mshr miss latency
system.cpu.dcache.replacements                 287858                       # number of replacements
system.cpu.dcache.ReadReq_hits::.cpu.data      2041070                       # number of ReadReq hits
system.cpu.dcache.ReadReq_hits::total         2041070                       # number of ReadReq hits
system.cpu.dcache.ReadReq_misses::.cpu.data          262                       # number of ReadReq misses
system.cpu.dcache.ReadReq_misses::total           262                       # number of ReadReq misses
system.cpu.dcache.ReadReq_miss_latency::.cpu.data     16417000                       # number of ReadReq miss cycles
system.cpu.dcache.ReadReq_miss_latency::total     16417000                       # number of ReadReq miss cycles
system.cpu.dcache.ReadReq_accesses::.cpu.data      2041332                       # number of ReadReq accesses(hits+misses)
system.cpu.dcache.ReadReq_accesses::total      2041332                       # number of ReadReq accesses(hits+misses)
system.cpu.dcache.ReadReq_miss_rate::.cpu.data     0.000128                       # miss rate for ReadReq accesses
system.cpu.dcache.ReadReq_miss_rate::total     0.000128                       # miss rate for ReadReq accesses
system.cpu.dcache.ReadReq_avg_miss_latency::.cpu.data 62660.305344                       # average ReadReq miss latency
system.cpu.dcache.ReadReq_avg_miss_latency::total 62660.305344                       # average ReadReq miss latency
system.cpu.dcache.ReadReq_mshr_hits::.cpu.data           32                       # number of ReadReq MSHR hits
system.cpu.dcache.ReadReq_mshr_hits::total           32                       # number of ReadReq MSHR hits
system.cpu.dcache.ReadReq_mshr_misses::.cpu.data          230                       # number of ReadReq MSHR misses
system.cpu.dcache.ReadReq_mshr_misses::total          230                       # number of ReadReq MSHR misses
system.cpu.dcache.ReadReq_mshr_miss_latency::.cpu.data     14490000                       # number of ReadReq MSHR miss cycles
system.cpu.dcache.ReadReq_mshr_miss_latency::total     14490000                       # number of ReadReq MSHR miss cycles
system.cpu.dcache.ReadReq_mshr_miss_rate::.cpu.data     0.000113                       # mshr miss rate for ReadReq accesses
system.cpu.dcache.ReadReq_mshr_miss_rate::total     0.000113                       # mshr miss rate for ReadReq accesses
system.cpu.dcache.ReadReq_avg_mshr_miss_latency::.cpu.data        63000                       # average ReadReq mshr miss latency
system.cpu.dcache.ReadReq_avg_mshr_miss_latency::total        63000                       # average ReadReq mshr miss latency
system.cpu.dcache.WriteReq_hits::.cpu.data      4171702                       # number of WriteReq hits
system.cpu.dcache.WriteReq_hits::total        4171702                       # number of WriteReq hits
system.cpu.dcache.WriteReq_misses::.cpu.data       574821                       # number of WriteReq misses
system.cpu.dcache.WriteReq_misses::total       574821                       # number of WriteReq misses
system.cpu.dcache.WriteReq_miss_latency::.cpu.data  47445321000                       # number of WriteReq miss cycles
system.cpu.dcache.WriteReq_miss_latency::total  47445321000                       # number of WriteReq miss cycles
system.cpu.dcache.WriteReq_accesses::.cpu.data      4746523                       # number of WriteReq accesses(hits+misses)
system.cpu.dcache.WriteReq_accesses::total      4746523                       # number of WriteReq accesses(hits+misses)
system.cpu.dcache.WriteReq_miss_rate::.cpu.data     0.121104                       # miss rate for WriteReq accesses
system.cpu.dcache.WriteReq_miss_rate::total     0.121104                       # miss rate for WriteReq accesses
system.cpu.dcache.WriteReq_avg_miss_latency::.cpu.data 82539.296581                       # average WriteReq miss latency
system.cpu.dcache.WriteReq_avg_miss_latency::total 82539.296581                       # average WriteReq miss latency
system.cpu.dcache.WriteReq_mshr_hits::.cpu.data       286188                       # number of WriteReq MSHR hits
system.cpu.dcache.WriteReq_mshr_hits::total       286188                       # number of WriteReq MSHR hits
system.cpu.dcache.WriteReq_mshr_misses::.cpu.data       288633                       # number of WriteReq MSHR misses
system.cpu.dcache.WriteReq_mshr_misses::total       288633                       # number of WriteReq MSHR misses
system.cpu.dcache.WriteReq_mshr_miss_latency::.cpu.data  23469449000                       # number of WriteReq MSHR miss cycles
system.cpu.dcache.WriteReq_mshr_miss_latency::total  23469449000                       # number of WriteReq MSHR miss cycles
system.cpu.dcache.WriteReq_mshr_miss_rate::.cpu.data     0.060809                       # mshr miss rate for WriteReq accesses
system.cpu.dcache.WriteReq_mshr_miss_rate::total     0.060809                       # mshr miss rate for WriteReq accesses
system.cpu.dcache.WriteReq_avg_mshr_miss_latency::.cpu.data 81312.424428                       # average WriteReq mshr miss latency
system.cpu.dcache.WriteReq_avg_mshr_miss_latency::total 81312.424428                       # average WriteReq mshr miss latency
system.cpu.dcache.SoftPFReq_hits::.cpu.data           35                       # number of SoftPFReq hits
system.cpu.dcache.SoftPFReq_hits::total            35                       # number of SoftPFReq hits
system.cpu.dcache.SoftPFReq_misses::.cpu.data           29                       # number of SoftPFReq misses
system.cpu.dcache.SoftPFReq_misses::total           29                       # number of SoftPFReq misses
system.cpu.dcache.SoftPFReq_accesses::.cpu.data           64                       # number of SoftPFReq accesses(hits+misses)
system.cpu.dcache.SoftPFReq_accesses::total           64                       # number of SoftPFReq accesses(hits+misses)
system.cpu.dcache.SoftPFReq_miss_rate::.cpu.data     0.453125                       # miss rate for SoftPFReq accesses
system.cpu.dcache.SoftPFReq_miss_rate::total     0.453125                       # miss rate for SoftPFReq accesses
system.cpu.dcache.SoftPFReq_mshr_misses::.cpu.data           18                       # number of SoftPFReq MSHR misses
system.cpu.dcache.SoftPFReq_mshr_misses::total           18                       # number of SoftPFReq MSHR misses
system.cpu.dcache.SoftPFReq_mshr_miss_latency::.cpu.data      1312000                       # number of SoftPFReq MSHR miss cycles
system.cpu.dcache.SoftPFReq_mshr_miss_latency::total      1312000                       # number of SoftPFReq MSHR miss cycles
system.cpu.dcache.SoftPFReq_mshr_miss_rate::.cpu.data     0.281250                       # mshr miss rate for SoftPFReq accesses
system.cpu.dcache.SoftPFReq_mshr_miss_rate::total     0.281250                       # mshr miss rate for SoftPFReq accesses
system.cpu.dcache.SoftPFReq_avg_mshr_miss_latency::.cpu.data 72888.888889                       # average SoftPFReq mshr miss latency
system.cpu.dcache.SoftPFReq_avg_mshr_miss_latency::total 72888.888889                       # average SoftPFReq mshr miss latency
system.cpu.dcache.LoadLockedReq_hits::.cpu.data           19                       # number of LoadLockedReq hits
system.cpu.dcache.LoadLockedReq_hits::total           19                       # number of LoadLockedReq hits
system.cpu.dcache.LoadLockedReq_misses::.cpu.data            1                       # number of LoadLockedReq misses
system.cpu.dcache.LoadLockedReq_misses::total            1                       # number of LoadLockedReq misses
system.cpu.dcache.LoadLockedReq_miss_latency::.cpu.data        86000                       # number of LoadLockedReq miss cycles
system.cpu.dcache.LoadLockedReq_miss_latency::total        86000                       # number of LoadLockedReq miss cycles
system.cpu.dcache.LoadLockedReq_accesses::.cpu.data           20                       # number of LoadLockedReq accesses(hits+misses)
system.cpu.dcache.LoadLockedReq_accesses::total           20                       # number of LoadLockedReq accesses(hits+misses)
system.cpu.dcache.LoadLockedReq_miss_rate::.cpu.data     0.050000                       # miss rate for LoadLockedReq accesses
system.cpu.dcache.LoadLockedReq_miss_rate::total     0.050000                       # miss rate for LoadLockedReq accesses
system.cpu.dcache.LoadLockedReq_avg_miss_latency::.cpu.data        86000                       # average LoadLockedReq miss latency
system.cpu.dcache.LoadLockedReq_avg_miss_latency::total        86000                       # average LoadLockedReq miss latency
system.cpu.dcache.LoadLockedReq_mshr_misses::.cpu.data            1                       # number of LoadLockedReq MSHR misses
system.cpu.dcache.LoadLockedReq_mshr_misses::total            1                       # number of LoadLockedReq MSHR misses
system.cpu.dcache.LoadLockedReq_mshr_miss_latency::.cpu.data        85000                       # number of LoadLockedReq MSHR miss cycles
system.cpu.dcache.LoadLockedReq_mshr_miss_latency::total        85000                       # number of LoadLockedReq MSHR miss cycles
system.cpu.dcache.LoadLockedReq_mshr_miss_rate::.cpu.data     0.050000                       # mshr miss rate for LoadLockedReq accesses
system.cpu.dcache.LoadLockedReq_mshr_miss_rate::total     0.050000                       # mshr miss rate for LoadLockedReq accesses
system.cpu.dcache.LoadLockedReq_avg_mshr_miss_latency::.cpu.data        85000                       # average LoadLockedReq mshr miss latency
system.cpu.dcache.LoadLockedReq_avg_mshr_miss_latency::total        85000                       # average LoadLockedReq mshr miss latency
system.cpu.dcache.StoreCondReq_hits::.cpu.data           20                       # number of StoreCondReq hits
system.cpu.dcache.StoreCondReq_hits::total           20                       # number of StoreCondReq hits
system.cpu.dcache.StoreCondReq_accesses::.cpu.data           20                       # number of StoreCondReq accesses(hits+misses)
system.cpu.dcache.StoreCondReq_accesses::total           20                       # number of StoreCondReq accesses(hits+misses)
system.cpu.dcache.tags.pwrStateResidencyTicks::UNDEFINED  30598537500                       # Cumulative time (in ticks) in various power states
system.cpu.dcache.tags.tagsinuse          1015.155558                       # Cycle average of tags in use
system.cpu.dcache.tags.total_refs             6501728                       # Total number of references to valid blocks.
system.cpu.dcache.tags.sampled_refs            288882                       # Sample count of references to valid blocks.
system.cpu.dcache.tags.avg_refs             22.506518                       # Average number of references to valid blocks.
system.cpu.dcache.tags.warmup_cycle            176500                       # Cycle when the warmup percentage was hit.
system.cpu.dcache.tags.occ_blocks::.cpu.data  1015.155558                       # Average occupied blocks per requestor
system.cpu.dcache.tags.occ_percent::.cpu.data     0.991363                       # Average percentage of cache occupancy
system.cpu.dcache.tags.occ_percent::total     0.991363                       # Average percentage of cache occupancy
system.cpu.dcache.tags.occ_task_id_blocks::1024         1024                       # Occupied blocks per task id
system.cpu.dcache.tags.age_task_id_blocks_1024::0          105                       # Occupied blocks per task id
system.cpu.dcache.tags.age_task_id_blocks_1024::1          919                       # Occupied blocks per task id
system.cpu.dcache.tags.occ_task_id_percent::1024            1                       # Percentage of cache occupancy per task id
system.cpu.dcache.tags.tag_accesses          13864800                       # Number of tag accesses
system.cpu.dcache.tags.data_accesses         13864800                       # Number of data accesses
system.cpu.itb.walker.pwrStateResidencyTicks::UNDEFINED  30598537500                       # Cumulative time (in ticks) in various power states
system.cpu.itb.stage2_mmu.stage2_tlb.walker.pwrStateResidencyTicks::UNDEFINED  30598537500                       # Cumulative time (in ticks) in various power states

---------- End Simulation Statistics   ----------
