
---------- Begin Simulation Statistics ----------
final_tick                                13464712000                       # Number of ticks from beginning of simulation (restored from checkpoints and never reset)
host_inst_rate                                  58904                       # Simulator instruction rate (inst/s)
host_mem_usage                                 682396                       # Number of bytes of host memory used
host_op_rate                                    64559                       # Simulator op (including micro ops) rate (op/s)
host_seconds                                   169.77                       # Real time elapsed on the host
host_tick_rate                               79312172                       # Simulator tick rate (ticks/s)
sim_freq                                 1000000000000                       # Frequency of simulated ticks
sim_insts                                    10000000                       # Number of instructions simulated
sim_ops                                      10960110                       # Number of ops (including micro ops) simulated
sim_seconds                                  0.013465                       # Number of seconds simulated
sim_ticks                                 13464712000                       # Number of ticks simulated
system.cpu.branchPred.BTBCorrect                    0                       # Number of correct BTB predictions (this stat may not work properly.
system.cpu.branchPred.BTBHitPct             98.975082                       # BTB Hit Percentage
system.cpu.branchPred.BTBHits                  377777                       # Number of BTB hits
system.cpu.branchPred.BTBLookups               381689                       # Number of BTB lookups
system.cpu.branchPred.RASInCorrect                 12                       # Number of incorrect RAS predictions.
system.cpu.branchPred.condIncorrect              7490                       # Number of conditional branches incorrect
system.cpu.branchPred.condPredicted            691236                       # Number of conditional branches predicted
system.cpu.branchPred.indirectHits                147                       # Number of indirect target hits.
system.cpu.branchPred.indirectLookups             352                       # Number of indirect predictor lookups.
system.cpu.branchPred.indirectMisses              205                       # Number of indirect misses.
system.cpu.branchPred.lookups                  807726                       # Number of BP lookups
system.cpu.branchPred.usedRAS                    7083                       # Number of times the RAS was used to get a target.
system.cpu.branchPredindirectMispredicted          192                       # Number of mispredicted indirect branches.
system.cpu.committedInsts                    10000000                       # Number of instructions committed
system.cpu.committedOps                      10960110                       # Number of ops (including micro ops) committed
system.cpu.cpi                               2.692942                       # CPI: cycles per instruction
system.cpu.discardedOps                         15830                       # Number of ops (including micro ops) which were discarded before commit
system.cpu.dtb.accesses                             0                       # DTB accesses
system.cpu.dtb.align_faults                         0                       # Number of TLB faults due to alignment restrictions
system.cpu.dtb.domain_faults                        0                       # Number of TLB faults due to domain restrictions
system.cpu.dtb.flush_entries                        0                       # Number of entries that have been flushed from TLB
system.cpu.dtb.flush_tlb                            0                       # Number of times complete TLB was flushed
system.cpu.dtb.flush_tlb_asid                       0                       # Number of times TLB was flushed by ASID
system.cpu.dtb.flush_tlb_mva                        0                       # Number of times TLB was flushed by MVA
system.cpu.dtb.flush_tlb_mva_asid                   0                       # Number of times TLB was flushed by MVA & ASID
system.cpu.dtb.hits                                 0                       # DTB hits
system.cpu.dtb.inst_accesses                        0                       # ITB inst accesses
system.cpu.dtb.inst_hits                            0                       # ITB inst hits
system.cpu.dtb.inst_misses                          0                       # ITB inst misses
system.cpu.dtb.misses                               0                       # DTB misses
system.cpu.dtb.perms_faults                         0                       # Number of TLB faults due to permissions restrictions
system.cpu.dtb.prefetch_faults                      0                       # Number of TLB faults due to prefetch
system.cpu.dtb.read_accesses                        0                       # DTB read accesses
system.cpu.dtb.read_hits                            0                       # DTB read hits
system.cpu.dtb.read_misses                          0                       # DTB read misses
system.cpu.dtb.stage2_mmu.stage2_tlb.accesses            0                       # DTB accesses
system.cpu.dtb.stage2_mmu.stage2_tlb.align_faults            0                       # Number of TLB faults due to alignment restrictions
system.cpu.dtb.stage2_mmu.stage2_tlb.domain_faults            0                       # Number of TLB faults due to domain restrictions
system.cpu.dtb.stage2_mmu.stage2_tlb.flush_entries            0                       # Number of entries that have been flushed from TLB
system.cpu.dtb.stage2_mmu.stage2_tlb.flush_tlb            0                       # Number of times complete TLB was flushed
system.cpu.dtb.stage2_mmu.stage2_tlb.flush_tlb_asid            0                       # Number of times TLB was flushed by ASID
system.cpu.dtb.stage2_mmu.stage2_tlb.flush_tlb_mva            0                       # Number of times TLB was flushed by MVA
system.cpu.dtb.stage2_mmu.stage2_tlb.flush_tlb_mva_asid            0                       # Number of times TLB was flushed by MVA & ASID
system.cpu.dtb.stage2_mmu.stage2_tlb.hits            0                       # DTB hits
system.cpu.dtb.stage2_mmu.stage2_tlb.inst_accesses            0                       # ITB inst accesses
system.cpu.dtb.stage2_mmu.stage2_tlb.inst_hits            0                       # ITB inst hits
system.cpu.dtb.stage2_mmu.stage2_tlb.inst_misses            0                       # ITB inst misses
system.cpu.dtb.stage2_mmu.stage2_tlb.misses            0                       # DTB misses
system.cpu.dtb.stage2_mmu.stage2_tlb.perms_faults            0                       # Number of TLB faults due to permissions restrictions
system.cpu.dtb.stage2_mmu.stage2_tlb.prefetch_faults            0                       # Number of TLB faults due to prefetch
system.cpu.dtb.stage2_mmu.stage2_tlb.read_accesses            0                       # DTB read accesses
system.cpu.dtb.stage2_mmu.stage2_tlb.read_hits            0                       # DTB read hits
system.cpu.dtb.stage2_mmu.stage2_tlb.read_misses            0                       # DTB read misses
system.cpu.dtb.stage2_mmu.stage2_tlb.walker.walkRequestOrigin_Requested::Data            0                       # Table walker requests started/completed, data/inst
system.cpu.dtb.stage2_mmu.stage2_tlb.walker.walkRequestOrigin_Requested::Inst            0                       # Table walker requests started/completed, data/inst
system.cpu.dtb.stage2_mmu.stage2_tlb.walker.walkRequestOrigin_Requested::total            0                       # Table walker requests started/completed, data/inst
system.cpu.dtb.stage2_mmu.stage2_tlb.walker.walkRequestOrigin_Completed::Data            0                       # Table walker requests started/completed, data/inst
system.cpu.dtb.stage2_mmu.stage2_tlb.walker.walkRequestOrigin_Completed::Inst            0                       # Table walker requests started/completed, data/inst
system.cpu.dtb.stage2_mmu.stage2_tlb.walker.walkRequestOrigin_Completed::total            0                       # Table walker requests started/completed, data/inst
system.cpu.dtb.stage2_mmu.stage2_tlb.walker.walkRequestOrigin::total            0                       # Table walker requests started/completed, data/inst
system.cpu.dtb.stage2_mmu.stage2_tlb.walker.walks            0                       # Table walker walks requested
system.cpu.dtb.stage2_mmu.stage2_tlb.write_accesses            0                       # DTB write accesses
system.cpu.dtb.stage2_mmu.stage2_tlb.write_hits            0                       # DTB write hits
system.cpu.dtb.stage2_mmu.stage2_tlb.write_misses            0                       # DTB write misses
system.cpu.dtb.walker.walkRequestOrigin_Requested::Data            0                       # Table walker requests started/completed, data/inst
system.cpu.dtb.walker.walkRequestOrigin_Requested::Inst            0                       # Table walker requests started/completed, data/inst
system.cpu.dtb.walker.walkRequestOrigin_Requested::total            0                       # Table walker requests started/completed, data/inst
system.cpu.dtb.walker.walkRequestOrigin_Completed::Data            0                       # Table walker requests started/completed, data/inst
system.cpu.dtb.walker.walkRequestOrigin_Completed::Inst            0                       # Table walker requests started/completed, data/inst
system.cpu.dtb.walker.walkRequestOrigin_Completed::total            0                       # Table walker requests started/completed, data/inst
system.cpu.dtb.walker.walkRequestOrigin::total            0                       # Table walker requests started/completed, data/inst
system.cpu.dtb.walker.walks                         0                       # Table walker walks requested
system.cpu.dtb.write_accesses                       0                       # DTB write accesses
system.cpu.dtb.write_hits                           0                       # DTB write hits
system.cpu.dtb.write_misses                         0                       # DTB write misses
system.cpu.fetch2.amo_instructions                  0                       # Number of memory atomic instructions successfully decoded
system.cpu.fetch2.fp_instructions                   0                       # Number of floating point instructions successfully decoded
system.cpu.fetch2.int_instructions            2262757                       # Number of integer instructions successfully decoded
system.cpu.fetch2.load_instructions           5744265                       # Number of memory load instructions successfully decoded
system.cpu.fetch2.store_instructions          1187340                       # Number of memory store instructions successfully decoded
system.cpu.fetch2.vec_instructions                  0                       # Number of SIMD instructions successfully decoded
system.cpu.idleCycles                        11646253                       # Total number of cycles that the object has spent stopped
system.cpu.ipc                               0.371341                       # IPC: instructions per cycle
system.cpu.itb.accesses                             0                       # DTB accesses
system.cpu.itb.align_faults                         0                       # Number of TLB faults due to alignment restrictions
system.cpu.itb.domain_faults                        0                       # Number of TLB faults due to domain restrictions
system.cpu.itb.flush_entries                        0                       # Number of entries that have been flushed from TLB
system.cpu.itb.flush_tlb                            0                       # Number of times complete TLB was flushed
system.cpu.itb.flush_tlb_asid                       0                       # Number of times TLB was flushed by ASID
system.cpu.itb.flush_tlb_mva                        0                       # Number of times TLB was flushed by MVA
system.cpu.itb.flush_tlb_mva_asid                   0                       # Number of times TLB was flushed by MVA & ASID
system.cpu.itb.hits                                 0                       # DTB hits
system.cpu.itb.inst_accesses                        0                       # ITB inst accesses
system.cpu.itb.inst_hits                            0                       # ITB inst hits
system.cpu.itb.inst_misses                          0                       # ITB inst misses
system.cpu.itb.misses                               0                       # DTB misses
system.cpu.itb.perms_faults                         0                       # Number of TLB faults due to permissions restrictions
system.cpu.itb.prefetch_faults                      0                       # Number of TLB faults due to prefetch
system.cpu.itb.read_accesses                        0                       # DTB read accesses
system.cpu.itb.read_hits                            0                       # DTB read hits
system.cpu.itb.read_misses                          0                       # DTB read misses
system.cpu.itb.stage2_mmu.stage2_tlb.accesses            0                       # DTB accesses
system.cpu.itb.stage2_mmu.stage2_tlb.align_faults            0                       # Number of TLB faults due to alignment restrictions
system.cpu.itb.stage2_mmu.stage2_tlb.domain_faults            0                       # Number of TLB faults due to domain restrictions
system.cpu.itb.stage2_mmu.stage2_tlb.flush_entries            0                       # Number of entries that have been flushed from TLB
system.cpu.itb.stage2_mmu.stage2_tlb.flush_tlb            0                       # Number of times complete TLB was flushed
system.cpu.itb.stage2_mmu.stage2_tlb.flush_tlb_asid            0                       # Number of times TLB was flushed by ASID
system.cpu.itb.stage2_mmu.stage2_tlb.flush_tlb_mva            0                       # Number of times TLB was flushed by MVA
system.cpu.itb.stage2_mmu.stage2_tlb.flush_tlb_mva_asid            0                       # Number of times TLB was flushed by MVA & ASID
system.cpu.itb.stage2_mmu.stage2_tlb.hits            0                       # DTB hits
system.cpu.itb.stage2_mmu.stage2_tlb.inst_accesses            0                       # ITB inst accesses
system.cpu.itb.stage2_mmu.stage2_tlb.inst_hits            0                       # ITB inst hits
system.cpu.itb.stage2_mmu.stage2_tlb.inst_misses            0                       # ITB inst misses
system.cpu.itb.stage2_mmu.stage2_tlb.misses            0                       # DTB misses
system.cpu.itb.stage2_mmu.stage2_tlb.perms_faults            0                       # Number of TLB faults due to permissions restrictions
system.cpu.itb.stage2_mmu.stage2_tlb.prefetch_faults            0                       # Number of TLB faults due to prefetch
system.cpu.itb.stage2_mmu.stage2_tlb.read_accesses            0                       # DTB read accesses
system.cpu.itb.stage2_mmu.stage2_tlb.read_hits            0                       # DTB read hits
system.cpu.itb.stage2_mmu.stage2_tlb.read_misses            0                       # DTB read misses
system.cpu.itb.stage2_mmu.stage2_tlb.walker.walkRequestOrigin_Requested::Data            0                       # Table walker requests started/completed, data/inst
system.cpu.itb.stage2_mmu.stage2_tlb.walker.walkRequestOrigin_Requested::Inst            0                       # Table walker requests started/completed, data/inst
system.cpu.itb.stage2_mmu.stage2_tlb.walker.walkRequestOrigin_Requested::total            0                       # Table walker requests started/completed, data/inst
system.cpu.itb.stage2_mmu.stage2_tlb.walker.walkRequestOrigin_Completed::Data            0                       # Table walker requests started/completed, data/inst
system.cpu.itb.stage2_mmu.stage2_tlb.walker.walkRequestOrigin_Completed::Inst            0                       # Table walker requests started/completed, data/inst
system.cpu.itb.stage2_mmu.stage2_tlb.walker.walkRequestOrigin_Completed::total            0                       # Table walker requests started/completed, data/inst
system.cpu.itb.stage2_mmu.stage2_tlb.walker.walkRequestOrigin::total            0                       # Table walker requests started/completed, data/inst
system.cpu.itb.stage2_mmu.stage2_tlb.walker.walks            0                       # Table walker walks requested
system.cpu.itb.stage2_mmu.stage2_tlb.write_accesses            0                       # DTB write accesses
system.cpu.itb.stage2_mmu.stage2_tlb.write_hits            0                       # DTB write hits
system.cpu.itb.stage2_mmu.stage2_tlb.write_misses            0                       # DTB write misses
system.cpu.itb.walker.walkRequestOrigin_Requested::Data            0                       # Table walker requests started/completed, data/inst
system.cpu.itb.walker.walkRequestOrigin_Requested::Inst            0                       # Table walker requests started/completed, data/inst
system.cpu.itb.walker.walkRequestOrigin_Requested::total            0                       # Table walker requests started/completed, data/inst
system.cpu.itb.walker.walkRequestOrigin_Completed::Data            0                       # Table walker requests started/completed, data/inst
system.cpu.itb.walker.walkRequestOrigin_Completed::Inst            0                       # Table walker requests started/completed, data/inst
system.cpu.itb.walker.walkRequestOrigin_Completed::total            0                       # Table walker requests started/completed, data/inst
system.cpu.itb.walker.walkRequestOrigin::total            0                       # Table walker requests started/completed, data/inst
system.cpu.itb.walker.walks                         0                       # Table walker walks requested
system.cpu.itb.write_accesses                       0                       # DTB write accesses
system.cpu.itb.write_hits                           0                       # DTB write hits
system.cpu.itb.write_misses                         0                       # DTB write misses
system.cpu.numCycles                         26929424                       # number of cpu cycles simulated
system.cpu.numFetchSuspends                         0                       # Number of times Execute suspended instruction fetching
system.cpu.numWorkItemsCompleted                    0                       # number of work items this cpu completed
system.cpu.numWorkItemsStarted                      0                       # number of work items this cpu started
system.cpu.op_class_0::No_OpClass                   0      0.00%      0.00% # Class of committed instruction
system.cpu.op_class_0::IntAlu                 3179297     29.01%     29.01% # Class of committed instruction
system.cpu.op_class_0::IntMult                     71      0.00%     29.01% # Class of committed instruction
system.cpu.op_class_0::IntDiv                       0      0.00%     29.01% # Class of committed instruction
system.cpu.op_class_0::FloatAdd                     0      0.00%     29.01% # Class of committed instruction
system.cpu.op_class_0::FloatCmp                     0      0.00%     29.01% # Class of committed instruction
system.cpu.op_class_0::FloatCvt                     0      0.00%     29.01% # Class of committed instruction
system.cpu.op_class_0::FloatMult                    0      0.00%     29.01% # Class of committed instruction
system.cpu.op_class_0::FloatMultAcc                 0      0.00%     29.01% # Class of committed instruction
system.cpu.op_class_0::FloatDiv                     0      0.00%     29.01% # Class of committed instruction
system.cpu.op_class_0::FloatMisc                    0      0.00%     29.01% # Class of committed instruction
system.cpu.op_class_0::FloatSqrt                    0      0.00%     29.01% # Class of committed instruction
system.cpu.op_class_0::SimdAdd                      0      0.00%     29.01% # Class of committed instruction
system.cpu.op_class_0::SimdAddAcc                   0      0.00%     29.01% # Class of committed instruction
system.cpu.op_class_0::SimdAlu                      0      0.00%     29.01% # Class of committed instruction
system.cpu.op_class_0::SimdCmp                      0      0.00%     29.01% # Class of committed instruction
system.cpu.op_class_0::SimdCvt                      0      0.00%     29.01% # Class of committed instruction
system.cpu.op_class_0::SimdMisc                     0      0.00%     29.01% # Class of committed instruction
system.cpu.op_class_0::SimdMult                     0      0.00%     29.01% # Class of committed instruction
system.cpu.op_class_0::SimdMultAcc                  0      0.00%     29.01% # Class of committed instruction
system.cpu.op_class_0::SimdShift                    0      0.00%     29.01% # Class of committed instruction
system.cpu.op_class_0::SimdShiftAcc                 0      0.00%     29.01% # Class of committed instruction
system.cpu.op_class_0::SimdDiv                      0      0.00%     29.01% # Class of committed instruction
system.cpu.op_class_0::SimdSqrt                     0      0.00%     29.01% # Class of committed instruction
system.cpu.op_class_0::SimdFloatAdd                 0      0.00%     29.01% # Class of committed instruction
system.cpu.op_class_0::SimdFloatAlu                 0      0.00%     29.01% # Class of committed instruction
system.cpu.op_class_0::SimdFloatCmp                 0      0.00%     29.01% # Class of committed instruction
system.cpu.op_class_0::SimdFloatCvt                 0      0.00%     29.01% # Class of committed instruction
system.cpu.op_class_0::SimdFloatDiv                 0      0.00%     29.01% # Class of committed instruction
system.cpu.op_class_0::SimdFloatMisc               18      0.00%     29.01% # Class of committed instruction
system.cpu.op_class_0::SimdFloatMult                0      0.00%     29.01% # Class of committed instruction
system.cpu.op_class_0::SimdFloatMultAcc             0      0.00%     29.01% # Class of committed instruction
system.cpu.op_class_0::SimdFloatSqrt                0      0.00%     29.01% # Class of committed instruction
system.cpu.op_class_0::SimdReduceAdd                0      0.00%     29.01% # Class of committed instruction
system.cpu.op_class_0::SimdReduceAlu                0      0.00%     29.01% # Class of committed instruction
system.cpu.op_class_0::SimdReduceCmp                0      0.00%     29.01% # Class of committed instruction
system.cpu.op_class_0::SimdFloatReduceAdd            0      0.00%     29.01% # Class of committed instruction
system.cpu.op_class_0::SimdFloatReduceCmp            0      0.00%     29.01% # Class of committed instruction
system.cpu.op_class_0::SimdAes                      0      0.00%     29.01% # Class of committed instruction
system.cpu.op_class_0::SimdAesMix                   0      0.00%     29.01% # Class of committed instruction
system.cpu.op_class_0::SimdSha1Hash                 0      0.00%     29.01% # Class of committed instruction
system.cpu.op_class_0::SimdSha1Hash2                0      0.00%     29.01% # Class of committed instruction
system.cpu.op_class_0::SimdSha256Hash               0      0.00%     29.01% # Class of committed instruction
system.cpu.op_class_0::SimdSha256Hash2              0      0.00%     29.01% # Class of committed instruction
system.cpu.op_class_0::SimdShaSigma2                0      0.00%     29.01% # Class of committed instruction
system.cpu.op_class_0::SimdShaSigma3                0      0.00%     29.01% # Class of committed instruction
system.cpu.op_class_0::SimdPredAlu                  0      0.00%     29.01% # Class of committed instruction
system.cpu.op_class_0::MemRead                5969501     54.47%     83.47% # Class of committed instruction
system.cpu.op_class_0::MemWrite               1811223     16.53%    100.00% # Class of committed instruction
system.cpu.op_class_0::FloatMemRead                 0      0.00%    100.00% # Class of committed instruction
system.cpu.op_class_0::FloatMemWrite                0      0.00%    100.00% # Class of committed instruction
system.cpu.op_class_0::IprAccess                    0      0.00%    100.00% # Class of committed instruction
system.cpu.op_class_0::InstPrefetch                 0      0.00%    100.00% # Class of committed instruction
system.cpu.op_class_0::total                 10960110                       # Class of committed instruction
system.cpu.tickCycles                        15283171                       # Number of cycles that the object actually ticked
system.cpu.workload.numSyscalls                    84                       # Number of system calls
system.membus.snoop_filter.hit_multi_requests            0                       # Number of requests hitting in the snoop filter with multiple (>1) holders of the requested data.
system.membus.snoop_filter.hit_multi_snoops            0                       # Number of snoops hitting in the snoop filter with multiple (>1) holders of the requested data.
system.membus.snoop_filter.hit_single_requests        85967                       # Number of requests hitting in the snoop filter with a single holder of the requested data.
system.membus.snoop_filter.hit_single_snoops            0                       # Number of snoops hitting in the snoop filter with a single holder of the requested data.
system.membus.snoop_filter.tot_requests        205020                       # Total number of requests made to the snoop filter.
system.membus.snoop_filter.tot_snoops               0                       # Total number of snoops made to the snoop filter.
system.tol2bus.snoop_filter.hit_multi_requests           76                       # Number of requests hitting in the snoop filter with multiple (>1) holders of the requested data.
system.tol2bus.snoop_filter.hit_multi_snoops            1                       # Number of snoops hitting in the snoop filter with multiple (>1) holders of the requested data.
system.tol2bus.snoop_filter.hit_single_requests       119296                       # Number of requests hitting in the snoop filter with a single holder of the requested data.
system.tol2bus.snoop_filter.hit_single_snoops          444                       # Number of snoops hitting in the snoop filter with a single holder of the requested data.
system.tol2bus.snoop_filter.tot_requests       240089                       # Total number of requests made to the snoop filter.
system.tol2bus.snoop_filter.tot_snoops            445                       # Total number of snoops made to the snoop filter.
system.membus.pwrStateResidencyTicks::UNDEFINED  13464712000                       # Cumulative time (in ticks) in various power states
system.membus.trans_dist::ReadResp              48789                       # Transaction distribution
system.membus.trans_dist::WritebackDirty        57785                       # Transaction distribution
system.membus.trans_dist::CleanEvict            28172                       # Transaction distribution
system.membus.trans_dist::ReadExReq             70274                       # Transaction distribution
system.membus.trans_dist::ReadExResp            70274                       # Transaction distribution
system.membus.trans_dist::ReadSharedReq         48789                       # Transaction distribution
system.membus.pkt_count_system.l2.mem_side::system.mem_ctrls.port       324083                       # Packet count per connected master and slave (bytes)
system.membus.pkt_count::total                 324083                       # Packet count per connected master and slave (bytes)
system.membus.pkt_size_system.l2.mem_side::system.mem_ctrls.port     11318272                       # Cumulative packet size per connected master and slave (bytes)
system.membus.pkt_size::total                11318272                       # Cumulative packet size per connected master and slave (bytes)
system.membus.snoops                                0                       # Total snoops (count)
system.membus.snoopTraffic                          0                       # Total snoop traffic (bytes)
system.membus.snoop_fanout::samples            119063                       # Request fanout histogram
system.membus.snoop_fanout::mean                    0                       # Request fanout histogram
system.membus.snoop_fanout::stdev                   0                       # Request fanout histogram
system.membus.snoop_fanout::underflows              0      0.00%      0.00% # Request fanout histogram
system.membus.snoop_fanout::0                  119063    100.00%    100.00% # Request fanout histogram
system.membus.snoop_fanout::1                       0      0.00%    100.00% # Request fanout histogram
system.membus.snoop_fanout::overflows               0      0.00%    100.00% # Request fanout histogram
system.membus.snoop_fanout::min_value               0                       # Request fanout histogram
system.membus.snoop_fanout::max_value               0                       # Request fanout histogram
system.membus.snoop_fanout::total              119063                       # Request fanout histogram
system.membus.respLayer1.occupancy          626636250                       # Layer occupancy (ticks)
system.membus.respLayer1.utilization              4.7                       # Layer utilization (%)
system.membus.reqLayer0.occupancy           446196000                       # Layer occupancy (ticks)
system.membus.reqLayer0.utilization               3.3                       # Layer utilization (%)
system.tol2bus.pwrStateResidencyTicks::UNDEFINED  13464712000                       # Cumulative time (in ticks) in various power states
system.tol2bus.trans_dist::ReadResp             50513                       # Transaction distribution
system.tol2bus.trans_dist::WritebackDirty       128247                       # Transaction distribution
system.tol2bus.trans_dist::WritebackClean          203                       # Transaction distribution
system.tol2bus.trans_dist::CleanEvict           77241                       # Transaction distribution
system.tol2bus.trans_dist::ReadExReq            70287                       # Transaction distribution
system.tol2bus.trans_dist::ReadExResp           70287                       # Transaction distribution
system.tol2bus.trans_dist::ReadCleanReq           690                       # Transaction distribution
system.tol2bus.trans_dist::ReadSharedReq        49823                       # Transaction distribution
system.tol2bus.pkt_count_system.cpu.icache.mem_side::system.l2.cpu_side         1583                       # Packet count per connected master and slave (bytes)
system.tol2bus.pkt_count_system.cpu.dcache.mem_side::system.l2.cpu_side       359306                       # Packet count per connected master and slave (bytes)
system.tol2bus.pkt_count::total                360889                       # Packet count per connected master and slave (bytes)
system.tol2bus.pkt_size_system.cpu.icache.mem_side::system.l2.cpu_side        57152                       # Cumulative packet size per connected master and slave (bytes)
system.tol2bus.pkt_size_system.cpu.dcache.mem_side::system.l2.cpu_side     12196608                       # Cumulative packet size per connected master and slave (bytes)
system.tol2bus.pkt_size::total               12253760                       # Cumulative packet size per connected master and slave (bytes)
system.tol2bus.snoops                           86402                       # Total snoops (count)
system.tol2bus.snoopTraffic                   3698240                       # Total snoop traffic (bytes)
system.tol2bus.snoop_fanout::samples           207202                       # Request fanout histogram
system.tol2bus.snoop_fanout::mean            0.002553                       # Request fanout histogram
system.tol2bus.snoop_fanout::stdev           0.050559                       # Request fanout histogram
system.tol2bus.snoop_fanout::underflows             0      0.00%      0.00% # Request fanout histogram
system.tol2bus.snoop_fanout::0                 206674     99.75%     99.75% # Request fanout histogram
system.tol2bus.snoop_fanout::1                    527      0.25%    100.00% # Request fanout histogram
system.tol2bus.snoop_fanout::2                      1      0.00%    100.00% # Request fanout histogram
system.tol2bus.snoop_fanout::overflows              0      0.00%    100.00% # Request fanout histogram
system.tol2bus.snoop_fanout::min_value              0                       # Request fanout histogram
system.tol2bus.snoop_fanout::max_value              2                       # Request fanout histogram
system.tol2bus.snoop_fanout::total             207202                       # Request fanout histogram
system.tol2bus.reqLayer0.occupancy          190709500                       # Layer occupancy (ticks)
system.tol2bus.reqLayer0.utilization              1.4                       # Layer utilization (%)
system.tol2bus.respLayer1.occupancy         180168992                       # Layer occupancy (ticks)
system.tol2bus.respLayer1.utilization             1.3                       # Layer utilization (%)
system.tol2bus.respLayer0.occupancy           1035000                       # Layer occupancy (ticks)
system.tol2bus.respLayer0.utilization             0.0                       # Layer utilization (%)
system.voltage_domain.voltage                       1                       # Voltage in Volts
system.clk_domain.clock                          1000                       # Clock period in ticks
system.l2.pwrStateResidencyTicks::UNDEFINED  13464712000                       # Cumulative time (in ticks) in various power states
system.l2.demand_hits::.cpu.inst                   53                       # number of demand (read+write) hits
system.l2.demand_hits::.cpu.data                 1676                       # number of demand (read+write) hits
system.l2.demand_hits::total                     1729                       # number of demand (read+write) hits
system.l2.overall_hits::.cpu.inst                  53                       # number of overall hits
system.l2.overall_hits::.cpu.data                1676                       # number of overall hits
system.l2.overall_hits::total                    1729                       # number of overall hits
system.l2.demand_misses::.cpu.inst                637                       # number of demand (read+write) misses
system.l2.demand_misses::.cpu.data             118434                       # number of demand (read+write) misses
system.l2.demand_misses::total                 119071                       # number of demand (read+write) misses
system.l2.overall_misses::.cpu.inst               637                       # number of overall misses
system.l2.overall_misses::.cpu.data            118434                       # number of overall misses
system.l2.overall_misses::total                119071                       # number of overall misses
system.l2.demand_miss_latency::.cpu.inst     48395500                       # number of demand (read+write) miss cycles
system.l2.demand_miss_latency::.cpu.data   9397519500                       # number of demand (read+write) miss cycles
system.l2.demand_miss_latency::total       9445915000                       # number of demand (read+write) miss cycles
system.l2.overall_miss_latency::.cpu.inst     48395500                       # number of overall miss cycles
system.l2.overall_miss_latency::.cpu.data   9397519500                       # number of overall miss cycles
system.l2.overall_miss_latency::total      9445915000                       # number of overall miss cycles
system.l2.demand_accesses::.cpu.inst              690                       # number of demand (read+write) accesses
system.l2.demand_accesses::.cpu.data           120110                       # number of demand (read+write) accesses
system.l2.demand_accesses::total               120800                       # number of demand (read+write) accesses
system.l2.overall_accesses::.cpu.inst             690                       # number of overall (read+write) accesses
system.l2.overall_accesses::.cpu.data          120110                       # number of overall (read+write) accesses
system.l2.overall_accesses::total              120800                       # number of overall (read+write) accesses
system.l2.demand_miss_rate::.cpu.inst        0.923188                       # miss rate for demand accesses
system.l2.demand_miss_rate::.cpu.data        0.986046                       # miss rate for demand accesses
system.l2.demand_miss_rate::total            0.985687                       # miss rate for demand accesses
system.l2.overall_miss_rate::.cpu.inst       0.923188                       # miss rate for overall accesses
system.l2.overall_miss_rate::.cpu.data       0.986046                       # miss rate for overall accesses
system.l2.overall_miss_rate::total           0.985687                       # miss rate for overall accesses
system.l2.demand_avg_miss_latency::.cpu.inst 75974.097331                       # average overall miss latency
system.l2.demand_avg_miss_latency::.cpu.data 79348.155935                       # average overall miss latency
system.l2.demand_avg_miss_latency::total 79330.105567                       # average overall miss latency
system.l2.overall_avg_miss_latency::.cpu.inst 75974.097331                       # average overall miss latency
system.l2.overall_avg_miss_latency::.cpu.data 79348.155935                       # average overall miss latency
system.l2.overall_avg_miss_latency::total 79330.105567                       # average overall miss latency
system.l2.blocked_cycles::no_mshrs                  0                       # number of cycles access was blocked
system.l2.blocked_cycles::no_targets                0                       # number of cycles access was blocked
system.l2.blocked::no_mshrs                         0                       # number of cycles access was blocked
system.l2.blocked::no_targets                       0                       # number of cycles access was blocked
system.l2.avg_blocked_cycles::no_mshrs            nan                       # average number of cycles each access was blocked
system.l2.avg_blocked_cycles::no_targets          nan                       # average number of cycles each access was blocked
system.l2.writebacks::.writebacks               57785                       # number of writebacks
system.l2.writebacks::total                     57785                       # number of writebacks
system.l2.demand_mshr_hits::.cpu.data               8                       # number of demand (read+write) MSHR hits
system.l2.demand_mshr_hits::total                   8                       # number of demand (read+write) MSHR hits
system.l2.overall_mshr_hits::.cpu.data              8                       # number of overall MSHR hits
system.l2.overall_mshr_hits::total                  8                       # number of overall MSHR hits
system.l2.demand_mshr_misses::.cpu.inst           637                       # number of demand (read+write) MSHR misses
system.l2.demand_mshr_misses::.cpu.data        118426                       # number of demand (read+write) MSHR misses
system.l2.demand_mshr_misses::total            119063                       # number of demand (read+write) MSHR misses
system.l2.overall_mshr_misses::.cpu.inst          637                       # number of overall MSHR misses
system.l2.overall_mshr_misses::.cpu.data       118426                       # number of overall MSHR misses
system.l2.overall_mshr_misses::total           119063                       # number of overall MSHR misses
system.l2.demand_mshr_miss_latency::.cpu.inst     42025500                       # number of demand (read+write) MSHR miss cycles
system.l2.demand_mshr_miss_latency::.cpu.data   8212704000                       # number of demand (read+write) MSHR miss cycles
system.l2.demand_mshr_miss_latency::total   8254729500                       # number of demand (read+write) MSHR miss cycles
system.l2.overall_mshr_miss_latency::.cpu.inst     42025500                       # number of overall MSHR miss cycles
system.l2.overall_mshr_miss_latency::.cpu.data   8212704000                       # number of overall MSHR miss cycles
system.l2.overall_mshr_miss_latency::total   8254729500                       # number of overall MSHR miss cycles
system.l2.demand_mshr_miss_rate::.cpu.inst     0.923188                       # mshr miss rate for demand accesses
system.l2.demand_mshr_miss_rate::.cpu.data     0.985980                       # mshr miss rate for demand accesses
system.l2.demand_mshr_miss_rate::total       0.985621                       # mshr miss rate for demand accesses
system.l2.overall_mshr_miss_rate::.cpu.inst     0.923188                       # mshr miss rate for overall accesses
system.l2.overall_mshr_miss_rate::.cpu.data     0.985980                       # mshr miss rate for overall accesses
system.l2.overall_mshr_miss_rate::total      0.985621                       # mshr miss rate for overall accesses
system.l2.demand_avg_mshr_miss_latency::.cpu.inst 65974.097331                       # average overall mshr miss latency
system.l2.demand_avg_mshr_miss_latency::.cpu.data 69348.825427                       # average overall mshr miss latency
system.l2.demand_avg_mshr_miss_latency::total 69330.770264                       # average overall mshr miss latency
system.l2.overall_avg_mshr_miss_latency::.cpu.inst 65974.097331                       # average overall mshr miss latency
system.l2.overall_avg_mshr_miss_latency::.cpu.data 69348.825427                       # average overall mshr miss latency
system.l2.overall_avg_mshr_miss_latency::total 69330.770264                       # average overall mshr miss latency
system.l2.replacements                          86402                       # number of replacements
system.l2.WritebackDirty_hits::.writebacks        70462                       # number of WritebackDirty hits
system.l2.WritebackDirty_hits::total            70462                       # number of WritebackDirty hits
system.l2.WritebackDirty_accesses::.writebacks        70462                       # number of WritebackDirty accesses(hits+misses)
system.l2.WritebackDirty_accesses::total        70462                       # number of WritebackDirty accesses(hits+misses)
system.l2.WritebackClean_hits::.writebacks          193                       # number of WritebackClean hits
system.l2.WritebackClean_hits::total              193                       # number of WritebackClean hits
system.l2.WritebackClean_accesses::.writebacks          193                       # number of WritebackClean accesses(hits+misses)
system.l2.WritebackClean_accesses::total          193                       # number of WritebackClean accesses(hits+misses)
system.l2.ReadExReq_hits::.cpu.data                13                       # number of ReadExReq hits
system.l2.ReadExReq_hits::total                    13                       # number of ReadExReq hits
system.l2.ReadExReq_misses::.cpu.data           70274                       # number of ReadExReq misses
system.l2.ReadExReq_misses::total               70274                       # number of ReadExReq misses
system.l2.ReadExReq_miss_latency::.cpu.data   5694785000                       # number of ReadExReq miss cycles
system.l2.ReadExReq_miss_latency::total    5694785000                       # number of ReadExReq miss cycles
system.l2.ReadExReq_accesses::.cpu.data         70287                       # number of ReadExReq accesses(hits+misses)
system.l2.ReadExReq_accesses::total             70287                       # number of ReadExReq accesses(hits+misses)
system.l2.ReadExReq_miss_rate::.cpu.data     0.999815                       # miss rate for ReadExReq accesses
system.l2.ReadExReq_miss_rate::total         0.999815                       # miss rate for ReadExReq accesses
system.l2.ReadExReq_avg_miss_latency::.cpu.data 81036.869966                       # average ReadExReq miss latency
system.l2.ReadExReq_avg_miss_latency::total 81036.869966                       # average ReadExReq miss latency
system.l2.ReadExReq_mshr_misses::.cpu.data        70274                       # number of ReadExReq MSHR misses
system.l2.ReadExReq_mshr_misses::total          70274                       # number of ReadExReq MSHR misses
system.l2.ReadExReq_mshr_miss_latency::.cpu.data   4992045000                       # number of ReadExReq MSHR miss cycles
system.l2.ReadExReq_mshr_miss_latency::total   4992045000                       # number of ReadExReq MSHR miss cycles
system.l2.ReadExReq_mshr_miss_rate::.cpu.data     0.999815                       # mshr miss rate for ReadExReq accesses
system.l2.ReadExReq_mshr_miss_rate::total     0.999815                       # mshr miss rate for ReadExReq accesses
system.l2.ReadExReq_avg_mshr_miss_latency::.cpu.data 71036.869966                       # average ReadExReq mshr miss latency
system.l2.ReadExReq_avg_mshr_miss_latency::total 71036.869966                       # average ReadExReq mshr miss latency
system.l2.ReadCleanReq_hits::.cpu.inst             53                       # number of ReadCleanReq hits
system.l2.ReadCleanReq_hits::total                 53                       # number of ReadCleanReq hits
system.l2.ReadCleanReq_misses::.cpu.inst          637                       # number of ReadCleanReq misses
system.l2.ReadCleanReq_misses::total              637                       # number of ReadCleanReq misses
system.l2.ReadCleanReq_miss_latency::.cpu.inst     48395500                       # number of ReadCleanReq miss cycles
system.l2.ReadCleanReq_miss_latency::total     48395500                       # number of ReadCleanReq miss cycles
system.l2.ReadCleanReq_accesses::.cpu.inst          690                       # number of ReadCleanReq accesses(hits+misses)
system.l2.ReadCleanReq_accesses::total            690                       # number of ReadCleanReq accesses(hits+misses)
system.l2.ReadCleanReq_miss_rate::.cpu.inst     0.923188                       # miss rate for ReadCleanReq accesses
system.l2.ReadCleanReq_miss_rate::total      0.923188                       # miss rate for ReadCleanReq accesses
system.l2.ReadCleanReq_avg_miss_latency::.cpu.inst 75974.097331                       # average ReadCleanReq miss latency
system.l2.ReadCleanReq_avg_miss_latency::total 75974.097331                       # average ReadCleanReq miss latency
system.l2.ReadCleanReq_mshr_misses::.cpu.inst          637                       # number of ReadCleanReq MSHR misses
system.l2.ReadCleanReq_mshr_misses::total          637                       # number of ReadCleanReq MSHR misses
system.l2.ReadCleanReq_mshr_miss_latency::.cpu.inst     42025500                       # number of ReadCleanReq MSHR miss cycles
system.l2.ReadCleanReq_mshr_miss_latency::total     42025500                       # number of ReadCleanReq MSHR miss cycles
system.l2.ReadCleanReq_mshr_miss_rate::.cpu.inst     0.923188                       # mshr miss rate for ReadCleanReq accesses
system.l2.ReadCleanReq_mshr_miss_rate::total     0.923188                       # mshr miss rate for ReadCleanReq accesses
system.l2.ReadCleanReq_avg_mshr_miss_latency::.cpu.inst 65974.097331                       # average ReadCleanReq mshr miss latency
system.l2.ReadCleanReq_avg_mshr_miss_latency::total 65974.097331                       # average ReadCleanReq mshr miss latency
system.l2.ReadSharedReq_hits::.cpu.data          1663                       # number of ReadSharedReq hits
system.l2.ReadSharedReq_hits::total              1663                       # number of ReadSharedReq hits
system.l2.ReadSharedReq_misses::.cpu.data        48160                       # number of ReadSharedReq misses
system.l2.ReadSharedReq_misses::total           48160                       # number of ReadSharedReq misses
system.l2.ReadSharedReq_miss_latency::.cpu.data   3702734500                       # number of ReadSharedReq miss cycles
system.l2.ReadSharedReq_miss_latency::total   3702734500                       # number of ReadSharedReq miss cycles
system.l2.ReadSharedReq_accesses::.cpu.data        49823                       # number of ReadSharedReq accesses(hits+misses)
system.l2.ReadSharedReq_accesses::total         49823                       # number of ReadSharedReq accesses(hits+misses)
system.l2.ReadSharedReq_miss_rate::.cpu.data     0.966622                       # miss rate for ReadSharedReq accesses
system.l2.ReadSharedReq_miss_rate::total     0.966622                       # miss rate for ReadSharedReq accesses
system.l2.ReadSharedReq_avg_miss_latency::.cpu.data 76884.022010                       # average ReadSharedReq miss latency
system.l2.ReadSharedReq_avg_miss_latency::total 76884.022010                       # average ReadSharedReq miss latency
system.l2.ReadSharedReq_mshr_hits::.cpu.data            8                       # number of ReadSharedReq MSHR hits
system.l2.ReadSharedReq_mshr_hits::total            8                       # number of ReadSharedReq MSHR hits
system.l2.ReadSharedReq_mshr_misses::.cpu.data        48152                       # number of ReadSharedReq MSHR misses
system.l2.ReadSharedReq_mshr_misses::total        48152                       # number of ReadSharedReq MSHR misses
system.l2.ReadSharedReq_mshr_miss_latency::.cpu.data   3220659000                       # number of ReadSharedReq MSHR miss cycles
system.l2.ReadSharedReq_mshr_miss_latency::total   3220659000                       # number of ReadSharedReq MSHR miss cycles
system.l2.ReadSharedReq_mshr_miss_rate::.cpu.data     0.966461                       # mshr miss rate for ReadSharedReq accesses
system.l2.ReadSharedReq_mshr_miss_rate::total     0.966461                       # mshr miss rate for ReadSharedReq accesses
system.l2.ReadSharedReq_avg_mshr_miss_latency::.cpu.data 66885.259179                       # average ReadSharedReq mshr miss latency
system.l2.ReadSharedReq_avg_mshr_miss_latency::total 66885.259179                       # average ReadSharedReq mshr miss latency
system.l2.tags.pwrStateResidencyTicks::UNDEFINED  13464712000                       # Cumulative time (in ticks) in various power states
system.l2.tags.tagsinuse                 27540.220014                       # Cycle average of tags in use
system.l2.tags.total_refs                      240005                       # Total number of references to valid blocks.
system.l2.tags.sampled_refs                    119170                       # Sample count of references to valid blocks.
system.l2.tags.avg_refs                      2.013972                       # Average number of references to valid blocks.
system.l2.tags.warmup_cycle                     77000                       # Cycle when the warmup percentage was hit.
system.l2.tags.occ_blocks::.writebacks      54.762105                       # Average occupied blocks per requestor
system.l2.tags.occ_blocks::.cpu.inst       166.940936                       # Average occupied blocks per requestor
system.l2.tags.occ_blocks::.cpu.data     27318.516973                       # Average occupied blocks per requestor
system.l2.tags.occ_percent::.writebacks      0.001671                       # Average percentage of cache occupancy
system.l2.tags.occ_percent::.cpu.inst        0.005095                       # Average percentage of cache occupancy
system.l2.tags.occ_percent::.cpu.data        0.833695                       # Average percentage of cache occupancy
system.l2.tags.occ_percent::total            0.840461                       # Average percentage of cache occupancy
system.l2.tags.occ_task_id_blocks::1024         32768                       # Occupied blocks per task id
system.l2.tags.age_task_id_blocks_1024::0            2                       # Occupied blocks per task id
system.l2.tags.age_task_id_blocks_1024::1           19                       # Occupied blocks per task id
system.l2.tags.age_task_id_blocks_1024::2          404                       # Occupied blocks per task id
system.l2.tags.age_task_id_blocks_1024::3        32343                       # Occupied blocks per task id
system.l2.tags.occ_task_id_percent::1024            1                       # Percentage of cache occupancy per task id
system.l2.tags.tag_accesses                   2039274                       # Number of tag accesses
system.l2.tags.data_accesses                  2039274                       # Number of data accesses
system.cpu_voltage_domain.voltage                   1                       # Voltage in Volts
system.mem_ctrls.pwrStateResidencyTicks::UNDEFINED  13464712000                       # Cumulative time (in ticks) in various power states
system.mem_ctrls.bytes_read::.cpu.inst          40768                       # Number of bytes read from this memory
system.mem_ctrls.bytes_read::.cpu.data        7579264                       # Number of bytes read from this memory
system.mem_ctrls.bytes_read::total            7620032                       # Number of bytes read from this memory
system.mem_ctrls.bytes_inst_read::.cpu.inst        40768                       # Number of instructions bytes read from this memory
system.mem_ctrls.bytes_inst_read::total         40768                       # Number of instructions bytes read from this memory
system.mem_ctrls.bytes_written::.writebacks      3698240                       # Number of bytes written to this memory
system.mem_ctrls.bytes_written::total         3698240                       # Number of bytes written to this memory
system.mem_ctrls.num_reads::.cpu.inst             637                       # Number of read requests responded to by this memory
system.mem_ctrls.num_reads::.cpu.data          118426                       # Number of read requests responded to by this memory
system.mem_ctrls.num_reads::total              119063                       # Number of read requests responded to by this memory
system.mem_ctrls.num_writes::.writebacks        57785                       # Number of write requests responded to by this memory
system.mem_ctrls.num_writes::total              57785                       # Number of write requests responded to by this memory
system.mem_ctrls.bw_read::.cpu.inst           3027766                       # Total read bandwidth from this memory (bytes/s)
system.mem_ctrls.bw_read::.cpu.data         562898338                       # Total read bandwidth from this memory (bytes/s)
system.mem_ctrls.bw_read::total             565926104                       # Total read bandwidth from this memory (bytes/s)
system.mem_ctrls.bw_inst_read::.cpu.inst      3027766                       # Instruction read bandwidth from this memory (bytes/s)
system.mem_ctrls.bw_inst_read::total          3027766                       # Instruction read bandwidth from this memory (bytes/s)
system.mem_ctrls.bw_write::.writebacks      274661649                       # Write bandwidth from this memory (bytes/s)
system.mem_ctrls.bw_write::total            274661649                       # Write bandwidth from this memory (bytes/s)
system.mem_ctrls.bw_total::.writebacks      274661649                       # Total bandwidth to/from this memory (bytes/s)
system.mem_ctrls.bw_total::.cpu.inst          3027766                       # Total bandwidth to/from this memory (bytes/s)
system.mem_ctrls.bw_total::.cpu.data        562898338                       # Total bandwidth to/from this memory (bytes/s)
system.mem_ctrls.bw_total::total            840587753                       # Total bandwidth to/from this memory (bytes/s)
system.mem_ctrls.avgPriority_.writebacks::samples     57785.00                       # Average QoS priority value for accepted requests
system.mem_ctrls.avgPriority_.cpu.inst::samples       637.00                       # Average QoS priority value for accepted requests
system.mem_ctrls.avgPriority_.cpu.data::samples    118426.00                       # Average QoS priority value for accepted requests
system.mem_ctrls.priorityMinLatency      0.000000018750                       # per QoS priority minimum request to response latency (s)
system.mem_ctrls.priorityMaxLatency      0.001410282500                       # per QoS priority maximum request to response latency (s)
system.mem_ctrls.numReadWriteTurnArounds         3604                       # Number of turnarounds from READ to WRITE
system.mem_ctrls.numWriteReadTurnArounds         3604                       # Number of turnarounds from WRITE to READ
system.mem_ctrls.numStayReadState              291147                       # Number of times bus staying in READ state
system.mem_ctrls.numStayWriteState              54200                       # Number of times bus staying in WRITE state
system.mem_ctrls.readReqs                      119063                       # Number of read requests accepted
system.mem_ctrls.writeReqs                      57785                       # Number of write requests accepted
system.mem_ctrls.readBursts                    119063                       # Number of DRAM read bursts, including those serviced by the write queue
system.mem_ctrls.writeBursts                    57785                       # Number of DRAM write bursts, including those merged in the write queue
system.mem_ctrls.servicedByWrQ                      0                       # Number of DRAM read bursts serviced by the write queue
system.mem_ctrls.mergedWrBursts                     0                       # Number of DRAM write bursts merged with an existing one
system.mem_ctrls.neitherReadNorWriteReqs            0                       # Number of requests that are neither read nor write
system.mem_ctrls.perBankRdBursts::0              7473                       # Per bank write bursts
system.mem_ctrls.perBankRdBursts::1              7456                       # Per bank write bursts
system.mem_ctrls.perBankRdBursts::2              7496                       # Per bank write bursts
system.mem_ctrls.perBankRdBursts::3              7538                       # Per bank write bursts
system.mem_ctrls.perBankRdBursts::4              7497                       # Per bank write bursts
system.mem_ctrls.perBankRdBursts::5              7457                       # Per bank write bursts
system.mem_ctrls.perBankRdBursts::6              7408                       # Per bank write bursts
system.mem_ctrls.perBankRdBursts::7              7367                       # Per bank write bursts
system.mem_ctrls.perBankRdBursts::8              7529                       # Per bank write bursts
system.mem_ctrls.perBankRdBursts::9              7595                       # Per bank write bursts
system.mem_ctrls.perBankRdBursts::10             7341                       # Per bank write bursts
system.mem_ctrls.perBankRdBursts::11             7344                       # Per bank write bursts
system.mem_ctrls.perBankRdBursts::12             7349                       # Per bank write bursts
system.mem_ctrls.perBankRdBursts::13             7372                       # Per bank write bursts
system.mem_ctrls.perBankRdBursts::14             7490                       # Per bank write bursts
system.mem_ctrls.perBankRdBursts::15             7351                       # Per bank write bursts
system.mem_ctrls.perBankWrBursts::0              3571                       # Per bank write bursts
system.mem_ctrls.perBankWrBursts::1              3623                       # Per bank write bursts
system.mem_ctrls.perBankWrBursts::2              3664                       # Per bank write bursts
system.mem_ctrls.perBankWrBursts::3              3675                       # Per bank write bursts
system.mem_ctrls.perBankWrBursts::4              3689                       # Per bank write bursts
system.mem_ctrls.perBankWrBursts::5              3677                       # Per bank write bursts
system.mem_ctrls.perBankWrBursts::6              3635                       # Per bank write bursts
system.mem_ctrls.perBankWrBursts::7              3623                       # Per bank write bursts
system.mem_ctrls.perBankWrBursts::8              3612                       # Per bank write bursts
system.mem_ctrls.perBankWrBursts::9              3618                       # Per bank write bursts
system.mem_ctrls.perBankWrBursts::10             3556                       # Per bank write bursts
system.mem_ctrls.perBankWrBursts::11             3573                       # Per bank write bursts
system.mem_ctrls.perBankWrBursts::12             3577                       # Per bank write bursts
system.mem_ctrls.perBankWrBursts::13             3549                       # Per bank write bursts
system.mem_ctrls.perBankWrBursts::14             3600                       # Per bank write bursts
system.mem_ctrls.perBankWrBursts::15             3523                       # Per bank write bursts
system.mem_ctrls.avgRdQLen                       1.33                       # Average read queue length when enqueuing
system.mem_ctrls.avgWrQLen                      24.85                       # Average write queue length when enqueuing
system.mem_ctrls.totQLat                   1157122250                       # Total ticks spent queuing
system.mem_ctrls.totBusLat                  595315000                       # Total ticks spent in databus transfers
system.mem_ctrls.totMemAccLat              3389553500                       # Total ticks spent from burst creation until serviced by the DRAM
system.mem_ctrls.avgQLat                      9718.57                       # Average queueing delay per DRAM burst
system.mem_ctrls.avgBusLat                    5000.00                       # Average bus latency per DRAM burst
system.mem_ctrls.avgMemAccLat                28468.57                       # Average memory access latency per DRAM burst
system.mem_ctrls.numRdRetry                         0                       # Number of times read queue was full causing retry
system.mem_ctrls.numWrRetry                         0                       # Number of times write queue was full causing retry
system.mem_ctrls.readRowHits                   106616                       # Number of row buffer hits during reads
system.mem_ctrls.writeRowHits                   50147                       # Number of row buffer hits during writes
system.mem_ctrls.readRowHitRate                 89.55                       # Row buffer hit rate for reads
system.mem_ctrls.writeRowHitRate                86.78                       # Row buffer hit rate for writes
system.mem_ctrls.readPktSize::0                     0                       # Read request sizes (log2)
system.mem_ctrls.readPktSize::1                     0                       # Read request sizes (log2)
system.mem_ctrls.readPktSize::2                     0                       # Read request sizes (log2)
system.mem_ctrls.readPktSize::3                     0                       # Read request sizes (log2)
system.mem_ctrls.readPktSize::4                     0                       # Read request sizes (log2)
system.mem_ctrls.readPktSize::5                     0                       # Read request sizes (log2)
system.mem_ctrls.readPktSize::6                119063                       # Read request sizes (log2)
system.mem_ctrls.writePktSize::0                    0                       # Write request sizes (log2)
system.mem_ctrls.writePktSize::1                    0                       # Write request sizes (log2)
system.mem_ctrls.writePktSize::2                    0                       # Write request sizes (log2)
system.mem_ctrls.writePktSize::3                    0                       # Write request sizes (log2)
system.mem_ctrls.writePktSize::4                    0                       # Write request sizes (log2)
system.mem_ctrls.writePktSize::5                    0                       # Write request sizes (log2)
system.mem_ctrls.writePktSize::6                57785                       # Write request sizes (log2)
system.mem_ctrls.rdQLenPdf::0                   67506                       # What read queue length does an incoming req see
system.mem_ctrls.rdQLenPdf::1                   51546                       # What read queue length does an incoming req see
system.mem_ctrls.rdQLenPdf::2                      11                       # What read queue length does an incoming req see
system.mem_ctrls.rdQLenPdf::3                       0                       # What read queue length does an incoming req see
system.mem_ctrls.rdQLenPdf::4                       0                       # What read queue length does an incoming req see
system.mem_ctrls.rdQLenPdf::5                       0                       # What read queue length does an incoming req see
system.mem_ctrls.rdQLenPdf::6                       0                       # What read queue length does an incoming req see
system.mem_ctrls.rdQLenPdf::7                       0                       # What read queue length does an incoming req see
system.mem_ctrls.rdQLenPdf::8                       0                       # What read queue length does an incoming req see
system.mem_ctrls.rdQLenPdf::9                       0                       # What read queue length does an incoming req see
system.mem_ctrls.rdQLenPdf::10                      0                       # What read queue length does an incoming req see
system.mem_ctrls.rdQLenPdf::11                      0                       # What read queue length does an incoming req see
system.mem_ctrls.rdQLenPdf::12                      0                       # What read queue length does an incoming req see
system.mem_ctrls.rdQLenPdf::13                      0                       # What read queue length does an incoming req see
system.mem_ctrls.rdQLenPdf::14                      0                       # What read queue length does an incoming req see
system.mem_ctrls.rdQLenPdf::15                      0                       # What read queue length does an incoming req see
system.mem_ctrls.rdQLenPdf::16                      0                       # What read queue length does an incoming req see
system.mem_ctrls.rdQLenPdf::17                      0                       # What read queue length does an incoming req see
system.mem_ctrls.rdQLenPdf::18                      0                       # What read queue length does an incoming req see
system.mem_ctrls.rdQLenPdf::19                      0                       # What read queue length does an incoming req see
system.mem_ctrls.rdQLenPdf::20                      0                       # What read queue length does an incoming req see
system.mem_ctrls.rdQLenPdf::21                      0                       # What read queue length does an incoming req see
system.mem_ctrls.rdQLenPdf::22                      0                       # What read queue length does an incoming req see
system.mem_ctrls.rdQLenPdf::23                      0                       # What read queue length does an incoming req see
system.mem_ctrls.rdQLenPdf::24                      0                       # What read queue length does an incoming req see
system.mem_ctrls.rdQLenPdf::25                      0                       # What read queue length does an incoming req see
system.mem_ctrls.rdQLenPdf::26                      0                       # What read queue length does an incoming req see
system.mem_ctrls.rdQLenPdf::27                      0                       # What read queue length does an incoming req see
system.mem_ctrls.rdQLenPdf::28                      0                       # What read queue length does an incoming req see
system.mem_ctrls.rdQLenPdf::29                      0                       # What read queue length does an incoming req see
system.mem_ctrls.rdQLenPdf::30                      0                       # What read queue length does an incoming req see
system.mem_ctrls.rdQLenPdf::31                      0                       # What read queue length does an incoming req see
system.mem_ctrls.wrQLenPdf::0                       1                       # What write queue length does an incoming req see
system.mem_ctrls.wrQLenPdf::1                       1                       # What write queue length does an incoming req see
system.mem_ctrls.wrQLenPdf::2                       1                       # What write queue length does an incoming req see
system.mem_ctrls.wrQLenPdf::3                       1                       # What write queue length does an incoming req see
system.mem_ctrls.wrQLenPdf::4                       1                       # What write queue length does an incoming req see
system.mem_ctrls.wrQLenPdf::5                       1                       # What write queue length does an incoming req see
system.mem_ctrls.wrQLenPdf::6                       1                       # What write queue length does an incoming req see
system.mem_ctrls.wrQLenPdf::7                       1                       # What write queue length does an incoming req see
system.mem_ctrls.wrQLenPdf::8                       1                       # What write queue length does an incoming req see
system.mem_ctrls.wrQLenPdf::9                       1                       # What write queue length does an incoming req see
system.mem_ctrls.wrQLenPdf::10                      1                       # What write queue length does an incoming req see
system.mem_ctrls.wrQLenPdf::11                      1                       # What write queue length does an incoming req see
system.mem_ctrls.wrQLenPdf::12                      1                       # What write queue length does an incoming req see
system.mem_ctrls.wrQLenPdf::13                      1                       # What write queue length does an incoming req see
system.mem_ctrls.wrQLenPdf::14                      1                       # What write queue length does an incoming req see
system.mem_ctrls.wrQLenPdf::15                     40                       # What write queue length does an incoming req see
system.mem_ctrls.wrQLenPdf::16                     41                       # What write queue length does an incoming req see
system.mem_ctrls.wrQLenPdf::17                   2304                       # What write queue length does an incoming req see
system.mem_ctrls.wrQLenPdf::18                   3621                       # What write queue length does an incoming req see
system.mem_ctrls.wrQLenPdf::19                   3621                       # What write queue length does an incoming req see
system.mem_ctrls.wrQLenPdf::20                   3698                       # What write queue length does an incoming req see
system.mem_ctrls.wrQLenPdf::21                   3606                       # What write queue length does an incoming req see
system.mem_ctrls.wrQLenPdf::22                   3759                       # What write queue length does an incoming req see
system.mem_ctrls.wrQLenPdf::23                   3656                       # What write queue length does an incoming req see
system.mem_ctrls.wrQLenPdf::24                   3827                       # What write queue length does an incoming req see
system.mem_ctrls.wrQLenPdf::25                   3725                       # What write queue length does an incoming req see
system.mem_ctrls.wrQLenPdf::26                   3645                       # What write queue length does an incoming req see
system.mem_ctrls.wrQLenPdf::27                   3611                       # What write queue length does an incoming req see
system.mem_ctrls.wrQLenPdf::28                   4171                       # What write queue length does an incoming req see
system.mem_ctrls.wrQLenPdf::29                   3629                       # What write queue length does an incoming req see
system.mem_ctrls.wrQLenPdf::30                   3606                       # What write queue length does an incoming req see
system.mem_ctrls.wrQLenPdf::31                   3604                       # What write queue length does an incoming req see
system.mem_ctrls.wrQLenPdf::32                   3604                       # What write queue length does an incoming req see
system.mem_ctrls.wrQLenPdf::33                      2                       # What write queue length does an incoming req see
system.mem_ctrls.wrQLenPdf::34                      0                       # What write queue length does an incoming req see
system.mem_ctrls.wrQLenPdf::35                      0                       # What write queue length does an incoming req see
system.mem_ctrls.wrQLenPdf::36                      0                       # What write queue length does an incoming req see
system.mem_ctrls.wrQLenPdf::37                      0                       # What write queue length does an incoming req see
system.mem_ctrls.wrQLenPdf::38                      0                       # What write queue length does an incoming req see
system.mem_ctrls.wrQLenPdf::39                      0                       # What write queue length does an incoming req see
system.mem_ctrls.wrQLenPdf::40                      0                       # What write queue length does an incoming req see
system.mem_ctrls.wrQLenPdf::41                      0                       # What write queue length does an incoming req see
system.mem_ctrls.wrQLenPdf::42                      0                       # What write queue length does an incoming req see
system.mem_ctrls.wrQLenPdf::43                      0                       # What write queue length does an incoming req see
system.mem_ctrls.wrQLenPdf::44                      0                       # What write queue length does an incoming req see
system.mem_ctrls.wrQLenPdf::45                      0                       # What write queue length does an incoming req see
system.mem_ctrls.wrQLenPdf::46                      0                       # What write queue length does an incoming req see
system.mem_ctrls.wrQLenPdf::47                      0                       # What write queue length does an incoming req see
system.mem_ctrls.wrQLenPdf::48                      0                       # What write queue length does an incoming req see
system.mem_ctrls.wrQLenPdf::49                      0                       # What write queue length does an incoming req see
system.mem_ctrls.wrQLenPdf::50                      0                       # What write queue length does an incoming req see
system.mem_ctrls.wrQLenPdf::51                      0                       # What write queue length does an incoming req see
system.mem_ctrls.wrQLenPdf::52                      0                       # What write queue length does an incoming req see
system.mem_ctrls.wrQLenPdf::53                      0                       # What write queue length does an incoming req see
system.mem_ctrls.wrQLenPdf::54                      0                       # What write queue length does an incoming req see
system.mem_ctrls.wrQLenPdf::55                      0                       # What write queue length does an incoming req see
system.mem_ctrls.wrQLenPdf::56                      0                       # What write queue length does an incoming req see
system.mem_ctrls.wrQLenPdf::57                      0                       # What write queue length does an incoming req see
system.mem_ctrls.wrQLenPdf::58                      0                       # What write queue length does an incoming req see
system.mem_ctrls.wrQLenPdf::59                      0                       # What write queue length does an incoming req see
system.mem_ctrls.wrQLenPdf::60                      0                       # What write queue length does an incoming req see
system.mem_ctrls.wrQLenPdf::61                      0                       # What write queue length does an incoming req see
system.mem_ctrls.wrQLenPdf::62                      0                       # What write queue length does an incoming req see
system.mem_ctrls.wrQLenPdf::63                      0                       # What write queue length does an incoming req see
system.mem_ctrls.bytesPerActivate::samples        20065                       # Bytes accessed per row activation
system.mem_ctrls.bytesPerActivate::mean    564.016546                       # Bytes accessed per row activation
system.mem_ctrls.bytesPerActivate::gmean   443.153812                       # Bytes accessed per row activation
system.mem_ctrls.bytesPerActivate::stdev   319.141923                       # Bytes accessed per row activation
system.mem_ctrls.bytesPerActivate::0-127         1548      7.71%      7.71% # Bytes accessed per row activation
system.mem_ctrls.bytesPerActivate::128-255         2321     11.57%     19.28% # Bytes accessed per row activation
system.mem_ctrls.bytesPerActivate::256-383          965      4.81%     24.09% # Bytes accessed per row activation
system.mem_ctrls.bytesPerActivate::384-511          962      4.79%     28.89% # Bytes accessed per row activation
system.mem_ctrls.bytesPerActivate::512-639         8278     41.26%     70.14% # Bytes accessed per row activation
system.mem_ctrls.bytesPerActivate::640-767          258      1.29%     71.43% # Bytes accessed per row activation
system.mem_ctrls.bytesPerActivate::768-895          304      1.52%     72.94% # Bytes accessed per row activation
system.mem_ctrls.bytesPerActivate::896-1023          373      1.86%     74.80% # Bytes accessed per row activation
system.mem_ctrls.bytesPerActivate::1024-1151         5056     25.20%    100.00% # Bytes accessed per row activation
system.mem_ctrls.bytesPerActivate::total        20065                       # Bytes accessed per row activation
system.mem_ctrls.rdPerTurnAround::samples         3604                       # Reads before turning the bus around for writes
system.mem_ctrls.rdPerTurnAround::mean      33.031354                       # Reads before turning the bus around for writes
system.mem_ctrls.rdPerTurnAround::gmean     24.422773                       # Reads before turning the bus around for writes
system.mem_ctrls.rdPerTurnAround::stdev     62.210635                       # Reads before turning the bus around for writes
system.mem_ctrls.rdPerTurnAround::0-127          3473     96.37%     96.37% # Reads before turning the bus around for writes
system.mem_ctrls.rdPerTurnAround::128-255           10      0.28%     96.64% # Reads before turning the bus around for writes
system.mem_ctrls.rdPerTurnAround::256-383          120      3.33%     99.97% # Reads before turning the bus around for writes
system.mem_ctrls.rdPerTurnAround::2560-2687            1      0.03%    100.00% # Reads before turning the bus around for writes
system.mem_ctrls.rdPerTurnAround::total          3604                       # Reads before turning the bus around for writes
system.mem_ctrls.wrPerTurnAround::samples         3604                       # Writes before turning the bus around for reads
system.mem_ctrls.wrPerTurnAround::mean      16.028024                       # Writes before turning the bus around for reads
system.mem_ctrls.wrPerTurnAround::gmean     16.025944                       # Writes before turning the bus around for reads
system.mem_ctrls.wrPerTurnAround::stdev      0.273833                       # Writes before turning the bus around for reads
system.mem_ctrls.wrPerTurnAround::16             3561     98.81%     98.81% # Writes before turning the bus around for reads
[...]
system.cpu.icache.ReadReq_avg_miss_latency::total 73508.695652                       # average ReadReq miss latency
system.cpu.icache.ReadReq_mshr_misses::.cpu.inst          690                       # number of ReadReq MSHR misses
system.cpu.icache.ReadReq_mshr_misses::total          690                       # number of ReadReq MSHR misses
system.cpu.icache.ReadReq_mshr_miss_latency::.cpu.inst     50031000                       # number of ReadReq MSHR miss cycles
system.cpu.icache.ReadReq_mshr_miss_latency::total     50031000                       # number of ReadReq MSHR miss cycles
system.cpu.icache.ReadReq_mshr_miss_rate::.cpu.inst     0.000404                       # mshr miss rate for ReadReq accesses
system.cpu.icache.ReadReq_mshr_miss_rate::total     0.000404                       # mshr miss rate for ReadReq accesses
system.cpu.icache.ReadReq_avg_mshr_miss_latency::.cpu.inst 72508.695652                       # average ReadReq mshr miss latency
system.cpu.icache.ReadReq_avg_mshr_miss_latency::total 72508.695652                       # average ReadReq mshr miss latency
system.cpu.icache.tags.pwrStateResidencyTicks::UNDEFINED  13464712000                       # Cumulative time (in ticks) in various power states
system.cpu.icache.tags.tagsinuse           457.719800                       # Cycle average of tags in use
system.cpu.icache.tags.total_refs             1707258                       # Total number of references to valid blocks.
system.cpu.icache.tags.sampled_refs               690                       # Sample count of references to valid blocks.
system.cpu.icache.tags.avg_refs           2474.286957                       # Average number of references to valid blocks.
system.cpu.icache.tags.warmup_cycle             87500                       # Cycle when the warmup percentage was hit.
system.cpu.icache.tags.occ_blocks::.cpu.inst   457.719800                       # Average occupied blocks per requestor
system.cpu.icache.tags.occ_percent::.cpu.inst     0.893984                       # Average percentage of cache occupancy
system.cpu.icache.tags.occ_percent::total     0.893984                       # Average percentage of cache occupancy
system.cpu.icache.tags.occ_task_id_blocks::1024          487                       # Occupied blocks per task id
system.cpu.icache.tags.age_task_id_blocks_1024::3          150                       # Occupied blocks per task id
system.cpu.icache.tags.age_task_id_blocks_1024::4          337                       # Occupied blocks per task id
system.cpu.icache.tags.occ_task_id_percent::1024     0.951172                       # Percentage of cache occupancy per task id
system.cpu.icache.tags.tag_accesses           6829722                       # Number of tag accesses
system.cpu.icache.tags.data_accesses          6829722                       # Number of data accesses
system.cpu.dtb.walker.pwrStateResidencyTicks::UNDEFINED  13464712000                       # Cumulative time (in ticks) in various power states
system.cpu.dtb.stage2_mmu.stage2_tlb.walker.pwrStateResidencyTicks::UNDEFINED  13464712000                       # Cumulative time (in ticks) in various power states
system.cpu.dcache.pwrStateResidencyTicks::UNDEFINED  13464712000                       # Cumulative time (in ticks) in various power states
system.cpu.dcache.demand_hits::.cpu.data      7539876                       # number of demand (read+write) hits
system.cpu.dcache.demand_hits::total          7539876                       # number of demand (read+write) hits
system.cpu.dcache.overall_hits::.cpu.data      7539969                       # number of overall hits
system.cpu.dcache.overall_hits::total         7539969                       # number of overall hits
system.cpu.dcache.demand_misses::.cpu.data       120847                       # number of demand (read+write) misses
system.cpu.dcache.demand_misses::total         120847                       # number of demand (read+write) misses
system.cpu.dcache.overall_misses::.cpu.data       199444                       # number of overall misses
system.cpu.dcache.overall_misses::total        199444                       # number of overall misses
system.cpu.dcache.demand_miss_latency::.cpu.data   9774471500                       # number of demand (read+write) miss cycles
system.cpu.dcache.demand_miss_latency::total   9774471500                       # number of demand (read+write) miss cycles
system.cpu.dcache.overall_miss_latency::.cpu.data   9774471500                       # number of overall miss cycles
system.cpu.dcache.overall_miss_latency::total   9774471500                       # number of overall miss cycles
system.cpu.dcache.demand_accesses::.cpu.data      7660723                       # number of demand (read+write) accesses
system.cpu.dcache.demand_accesses::total      7660723                       # number of demand (read+write) accesses
system.cpu.dcache.overall_accesses::.cpu.data      7739413                       # number of overall (read+write) accesses
system.cpu.dcache.overall_accesses::total      7739413                       # number of overall (read+write) accesses
system.cpu.dcache.demand_miss_rate::.cpu.data     0.015775                       # miss rate for demand accesses
system.cpu.dcache.demand_miss_rate::total     0.015775                       # miss rate for demand accesses
system.cpu.dcache.overall_miss_rate::.cpu.data     0.025770                       # miss rate for overall accesses
system.cpu.dcache.overall_miss_rate::total     0.025770                       # miss rate for overall accesses
system.cpu.dcache.demand_avg_miss_latency::.cpu.data 80883.029781                       # average overall miss latency
system.cpu.dcache.demand_avg_miss_latency::total 80883.029781                       # average overall miss latency
system.cpu.dcache.overall_avg_miss_latency::.cpu.data 49008.601412                       # average overall miss latency
system.cpu.dcache.overall_avg_miss_latency::total 49008.601412                       # average overall miss latency
system.cpu.dcache.blocked_cycles::no_mshrs            0                       # number of cycles access was blocked
system.cpu.dcache.blocked_cycles::no_targets            0                       # number of cycles access was blocked
system.cpu.dcache.blocked::no_mshrs                 0                       # number of cycles access was blocked
system.cpu.dcache.blocked::no_targets               0                       # number of cycles access was blocked
system.cpu.dcache.avg_blocked_cycles::no_mshrs          nan                       # average number of cycles each access was blocked
system.cpu.dcache.avg_blocked_cycles::no_targets          nan                       # average number of cycles each access was blocked
system.cpu.dcache.writebacks::.writebacks        70462                       # number of writebacks
system.cpu.dcache.writebacks::total             70462                       # number of writebacks
system.cpu.dcache.demand_mshr_hits::.cpu.data        40045                       # number of demand (read+write) MSHR hits
system.cpu.dcache.demand_mshr_hits::total        40045                       # number of demand (read+write) MSHR hits
system.cpu.dcache.overall_mshr_hits::.cpu.data        40045                       # number of overall MSHR hits
system.cpu.dcache.overall_mshr_hits::total        40045                       # number of overall MSHR hits
system.cpu.dcache.demand_mshr_misses::.cpu.data        80802                       # number of demand (read+write) MSHR misses
system.cpu.dcache.demand_mshr_misses::total        80802                       # number of demand (read+write) MSHR misses
system.cpu.dcache.overall_mshr_misses::.cpu.data       120110                       # number of overall MSHR misses
system.cpu.dcache.overall_mshr_misses::total       120110                       # number of overall MSHR misses
system.cpu.dcache.demand_mshr_miss_latency::.cpu.data   6527053000                       # number of demand (read+write) MSHR miss cycles
system.cpu.dcache.demand_mshr_miss_latency::total   6527053000                       # number of demand (read+write) MSHR miss cycles
system.cpu.dcache.overall_mshr_miss_latency::.cpu.data   9595311000                       # number of overall MSHR miss cycles
system.cpu.dcache.overall_mshr_miss_latency::total   9595311000                       # number of overall MSHR miss cycles
system.cpu.dcache.demand_mshr_miss_rate::.cpu.data     0.010548                       # mshr miss rate for demand accesses
system.cpu.dcache.demand_mshr_miss_rate::total     0.010548                       # mshr miss rate for demand accesses
system.cpu.dcache.overall_mshr_miss_rate::.cpu.data     0.015519                       # mshr miss rate for overall accesses
system.cpu.dcache.overall_mshr_miss_rate::total     0.015519                       # mshr miss rate for overall accesses
system.cpu.dcache.demand_avg_mshr_miss_latency::.cpu.data 80778.359447                       # average overall mshr miss latency
system.cpu.dcache.demand_avg_mshr_miss_latency::total 80778.359447                       # average overall mshr miss latency
system.cpu.dcache.overall_avg_mshr_miss_latency::.cpu.data 79887.694613                       # average overall mshr miss latency
system.cpu.dcache.overall_avg_mshr_miss_latency::total 79887.694613                       # average overall mshr miss latency
system.cpu.dcache.replacements                 119086                       # number of replacements
system.cpu.dcache.ReadReq_hits::.cpu.data      5837648                       # number of ReadReq hits
system.cpu.dcache.ReadReq_hits::total         5837648                       # number of ReadReq hits
system.cpu.dcache.ReadReq_misses::.cpu.data        12081                       # number of ReadReq misses
system.cpu.dcache.ReadReq_misses::total         12081                       # number of ReadReq misses
system.cpu.dcache.ReadReq_miss_latency::.cpu.data    821119500                       # number of ReadReq miss cycles
system.cpu.dcache.ReadReq_miss_latency::total    821119500                       # number of ReadReq miss cycles
system.cpu.dcache.ReadReq_accesses::.cpu.data      5849729                       # number of ReadReq accesses(hits+misses)
system.cpu.dcache.ReadReq_accesses::total      5849729                       # number of ReadReq accesses(hits+misses)
system.cpu.dcache.ReadReq_miss_rate::.cpu.data     0.002065                       # miss rate for ReadReq accesses
system.cpu.dcache.ReadReq_miss_rate::total     0.002065                       # miss rate for ReadReq accesses
system.cpu.dcache.ReadReq_avg_miss_latency::.cpu.data 67967.842066                       # average ReadReq miss latency
system.cpu.dcache.ReadReq_avg_miss_latency::total 67967.842066                       # average ReadReq miss latency
system.cpu.dcache.ReadReq_mshr_hits::.cpu.data         1566                       # number of ReadReq MSHR hits
system.cpu.dcache.ReadReq_mshr_hits::total         1566                       # number of ReadReq MSHR hits
system.cpu.dcache.ReadReq_mshr_misses::.cpu.data        10515                       # number of ReadReq MSHR misses
system.cpu.dcache.ReadReq_mshr_misses::total        10515                       # number of ReadReq MSHR misses
system.cpu.dcache.ReadReq_mshr_miss_latency::.cpu.data    726698500                       # number of ReadReq MSHR miss cycles
system.cpu.dcache.ReadReq_mshr_miss_latency::total    726698500                       # number of ReadReq MSHR miss cycles
system.cpu.dcache.ReadReq_mshr_miss_rate::.cpu.data     0.001798                       # mshr miss rate for ReadReq accesses
system.cpu.dcache.ReadReq_mshr_miss_rate::total     0.001798                       # mshr miss rate for ReadReq accesses
system.cpu.dcache.ReadReq_avg_mshr_miss_latency::.cpu.data 69110.651450                       # average ReadReq mshr miss latency
system.cpu.dcache.ReadReq_avg_mshr_miss_latency::total 69110.651450                       # average ReadReq mshr miss latency
system.cpu.dcache.WriteReq_hits::.cpu.data      1702228                       # number of WriteReq hits
system.cpu.dcache.WriteReq_hits::total        1702228                       # number of WriteReq hits
system.cpu.dcache.WriteReq_misses::.cpu.data       108766                       # number of WriteReq misses
system.cpu.dcache.WriteReq_misses::total       108766                       # number of WriteReq misses
system.cpu.dcache.WriteReq_miss_latency::.cpu.data   8953352000                       # number of WriteReq miss cycles
system.cpu.dcache.WriteReq_miss_latency::total   8953352000                       # number of WriteReq miss cycles
system.cpu.dcache.WriteReq_accesses::.cpu.data      1810994                       # number of WriteReq accesses(hits+misses)
system.cpu.dcache.WriteReq_accesses::total      1810994                       # number of WriteReq accesses(hits+misses)
system.cpu.dcache.WriteReq_miss_rate::.cpu.data     0.060059                       # miss rate for WriteReq accesses
system.cpu.dcache.WriteReq_miss_rate::total     0.060059                       # miss rate for WriteReq accesses
system.cpu.dcache.WriteReq_avg_miss_latency::.cpu.data 82317.562474                       # average WriteReq miss latency
system.cpu.dcache.WriteReq_avg_miss_latency::total 82317.562474                       # average WriteReq miss latency
system.cpu.dcache.WriteReq_mshr_hits::.cpu.data        38479                       # number of WriteReq MSHR hits
system.cpu.dcache.WriteReq_mshr_hits::total        38479                       # number of WriteReq MSHR hits
system.cpu.dcache.WriteReq_mshr_misses::.cpu.data        70287                       # number of WriteReq MSHR misses
system.cpu.dcache.WriteReq_mshr_misses::total        70287                       # number of WriteReq MSHR misses
system.cpu.dcache.WriteReq_mshr_miss_latency::.cpu.data   5800354500                       # number of WriteReq MSHR miss cycles
system.cpu.dcache.WriteReq_mshr_miss_latency::total   5800354500                       # number of WriteReq MSHR miss cycles
system.cpu.dcache.WriteReq_mshr_miss_rate::.cpu.data     0.038811                       # mshr miss rate for WriteReq accesses
system.cpu.dcache.WriteReq_mshr_miss_rate::total     0.038811                       # mshr miss rate for WriteReq accesses
system.cpu.dcache.WriteReq_avg_mshr_miss_latency::.cpu.data 82523.859320                       # average WriteReq mshr miss latency
system.cpu.dcache.WriteReq_avg_mshr_miss_latency::total 82523.859320                       # average WriteReq mshr miss latency
system.cpu.dcache.SoftPFReq_hits::.cpu.data           93                       # number of SoftPFReq hits
system.cpu.dcache.SoftPFReq_hits::total            93                       # number of SoftPFReq hits
system.cpu.dcache.SoftPFReq_misses::.cpu.data        78597                       # number of SoftPFReq misses
system.cpu.dcache.SoftPFReq_misses::total        78597                       # number of SoftPFReq misses
system.cpu.dcache.SoftPFReq_accesses::.cpu.data        78690                       # number of SoftPFReq accesses(hits+misses)
system.cpu.dcache.SoftPFReq_accesses::total        78690                       # number of SoftPFReq accesses(hits+misses)
system.cpu.dcache.SoftPFReq_miss_rate::.cpu.data     0.998818                       # miss rate for SoftPFReq accesses
system.cpu.dcache.SoftPFReq_miss_rate::total     0.998818                       # miss rate for SoftPFReq accesses
system.cpu.dcache.SoftPFReq_mshr_misses::.cpu.data        39308                       # number of SoftPFReq MSHR misses
system.cpu.dcache.SoftPFReq_mshr_misses::total        39308                       # number of SoftPFReq MSHR misses
system.cpu.dcache.SoftPFReq_mshr_miss_latency::.cpu.data   3068258000                       # number of SoftPFReq MSHR miss cycles
system.cpu.dcache.SoftPFReq_mshr_miss_latency::total   3068258000                       # number of SoftPFReq MSHR miss cycles
system.cpu.dcache.SoftPFReq_mshr_miss_rate::.cpu.data     0.499530                       # mshr miss rate for SoftPFReq accesses
system.cpu.dcache.SoftPFReq_mshr_miss_rate::total     0.499530                       # mshr miss rate for SoftPFReq accesses
system.cpu.dcache.SoftPFReq_avg_mshr_miss_latency::.cpu.data 78056.833215                       # average SoftPFReq mshr miss latency
system.cpu.dcache.SoftPFReq_avg_mshr_miss_latency::total 78056.833215                       # average SoftPFReq mshr miss latency
system.cpu.dcache.LoadLockedReq_hits::.cpu.data           38                       # number of LoadLockedReq hits
system.cpu.dcache.LoadLockedReq_hits::total           38                       # number of LoadLockedReq hits
system.cpu.dcache.LoadLockedReq_accesses::.cpu.data           38                       # number of LoadLockedReq accesses(hits+misses)
system.cpu.dcache.LoadLockedReq_accesses::total           38                       # number of LoadLockedReq accesses(hits+misses)
system.cpu.dcache.StoreCondReq_hits::.cpu.data           38                       # number of StoreCondReq hits
system.cpu.dcache.StoreCondReq_hits::total           38                       # number of StoreCondReq hits
system.cpu.dcache.StoreCondReq_accesses::.cpu.data           38                       # number of StoreCondReq accesses(hits+misses)
system.cpu.dcache.StoreCondReq_accesses::total           38                       # number of StoreCondReq accesses(hits+misses)
system.cpu.dcache.tags.pwrStateResidencyTicks::UNDEFINED  13464712000                       # Cumulative time (in ticks) in various power states
system.cpu.dcache.tags.tagsinuse           931.421186                       # Cycle average of tags in use
system.cpu.dcache.tags.total_refs             7660155                       # Total number of references to valid blocks.
system.cpu.dcache.tags.sampled_refs            120110                       # Sample count of references to valid blocks.
system.cpu.dcache.tags.avg_refs             63.776164                       # Average number of references to valid blocks.
system.cpu.dcache.tags.warmup_cycle            176500                       # Cycle when the warmup percentage was hit.
system.cpu.dcache.tags.occ_blocks::.cpu.data   931.421186                       # Average occupied blocks per requestor
system.cpu.dcache.tags.occ_percent::.cpu.data     0.909591                       # Average percentage of cache occupancy
system.cpu.dcache.tags.occ_percent::total     0.909591                       # Average percentage of cache occupancy
system.cpu.dcache.tags.occ_task_id_blocks::1024         1024                       # Occupied blocks per task id
system.cpu.dcache.tags.age_task_id_blocks_1024::0            2                       # Occupied blocks per task id
system.cpu.dcache.tags.age_task_id_blocks_1024::1           19                       # Occupied blocks per task id
system.cpu.dcache.tags.age_task_id_blocks_1024::2          419                       # Occupied blocks per task id
system.cpu.dcache.tags.age_task_id_blocks_1024::3          584                       # Occupied blocks per task id
system.cpu.dcache.tags.occ_task_id_percent::1024            1                       # Percentage of cache occupancy per task id
system.cpu.dcache.tags.tag_accesses          15599088                       # Number of tag accesses
system.cpu.dcache.tags.data_accesses         15599088                       # Number of data accesses
system.cpu.itb.walker.pwrStateResidencyTicks::UNDEFINED  13464712000                       # Cumulative time (in ticks) in various power states
system.cpu.itb.stage2_mmu.stage2_tlb.walker.pwrStateResidencyTicks::UNDEFINED  13464712000                       # Cumulative time (in ticks) in various power states

---------- End Simulation Statistics   ----------
